
*** ChampSim Multicore Out-of-Order Simulator ***

Warmup Instructions: 200000000
Simulation Instructions: 1000000000
Number of CPUs: 4
LLC sets: 8192
LLC ways: 16
Off-chip DRAM Size: 8192 MB Channels: 2 Width: 64-bit Data Rate: 1600 MT/s

CPU 0 runs /home/ubuntu/PPF_Paper_Source_Code-master/traces/623.xalancbmk_s-10B.champsimtrace.xz
CPU 1 runs /home/ubuntu/PPF_Paper_Source_Code-master/traces/649.fotonik3d_s-10881B.champsimtrace.xz
CPU 2 runs /home/ubuntu/PPF_Paper_Source_Code-master/traces/603.bwaves_s-1080B.champsimtrace.xz
CPU 3 runs /home/ubuntu/PPF_Paper_Source_Code-master/traces/605.mcf_s-1152B.champsimtrace.xz
L2C Best-offset prefetcher
L2C Best-offset prefetcher
L2C Best-offset prefetcher
L2C Best-offset prefetcher
Heartbeat CPU 2 instructions: 10000003 cycles: 4334703 heartbeat IPC: 2.30696 cumulative IPC: 2.30696 (Simulation time: 0 hr 0 min 59 sec) 
Heartbeat CPU 0 instructions: 10000001 cycles: 4876392 heartbeat IPC: 2.0507 cumulative IPC: 2.0507 (Simulation time: 0 hr 1 min 7 sec) 
Heartbeat CPU 3 instructions: 10000001 cycles: 6553404 heartbeat IPC: 1.52592 cumulative IPC: 1.52592 (Simulation time: 0 hr 1 min 32 sec) 
Heartbeat CPU 1 instructions: 10000001 cycles: 8411609 heartbeat IPC: 1.18883 cumulative IPC: 1.18883 (Simulation time: 0 hr 1 min 58 sec) 
Heartbeat CPU 2 instructions: 20000000 cycles: 8838219 heartbeat IPC: 2.22049 cumulative IPC: 2.2629 (Simulation time: 0 hr 2 min 3 sec) 
Heartbeat CPU 0 instructions: 20000000 cycles: 9684179 heartbeat IPC: 2.07996 cumulative IPC: 2.06522 (Simulation time: 0 hr 2 min 15 sec) 
Heartbeat CPU 2 instructions: 30000000 cycles: 12796060 heartbeat IPC: 2.52663 cumulative IPC: 2.34447 (Simulation time: 0 hr 2 min 55 sec) 
Heartbeat CPU 3 instructions: 20000000 cycles: 13109663 heartbeat IPC: 1.52526 cumulative IPC: 1.52559 (Simulation time: 0 hr 3 min 0 sec) 
Heartbeat CPU 0 instructions: 30000000 cycles: 14596814 heartbeat IPC: 2.03557 cumulative IPC: 2.05524 (Simulation time: 0 hr 3 min 19 sec) 
Heartbeat CPU 2 instructions: 40000000 cycles: 16751418 heartbeat IPC: 2.52822 cumulative IPC: 2.38786 (Simulation time: 0 hr 3 min 48 sec) 
Heartbeat CPU 1 instructions: 20000000 cycles: 16787718 heartbeat IPC: 1.19387 cumulative IPC: 1.19135 (Simulation time: 0 hr 3 min 48 sec) 
Heartbeat CPU 0 instructions: 40000000 cycles: 19530199 heartbeat IPC: 2.02701 cumulative IPC: 2.04811 (Simulation time: 0 hr 4 min 24 sec) 
Heartbeat CPU 3 instructions: 30000001 cycles: 19652063 heartbeat IPC: 1.52849 cumulative IPC: 1.52656 (Simulation time: 0 hr 4 min 26 sec) 
Heartbeat CPU 2 instructions: 50000000 cycles: 20725042 heartbeat IPC: 2.51659 cumulative IPC: 2.41254 (Simulation time: 0 hr 4 min 40 sec) 
Heartbeat CPU 0 instructions: 50000001 cycles: 24447094 heartbeat IPC: 2.0338 cumulative IPC: 2.04523 (Simulation time: 0 hr 5 min 30 sec) 
Heartbeat CPU 2 instructions: 60000000 cycles: 24717279 heartbeat IPC: 2.50486 cumulative IPC: 2.42745 (Simulation time: 0 hr 5 min 33 sec) 
Heartbeat CPU 1 instructions: 30000000 cycles: 25158613 heartbeat IPC: 1.19462 cumulative IPC: 1.19243 (Simulation time: 0 hr 5 min 39 sec) 
Heartbeat CPU 3 instructions: 40000000 cycles: 26202915 heartbeat IPC: 1.52652 cumulative IPC: 1.52655 (Simulation time: 0 hr 5 min 54 sec) 
Heartbeat CPU 2 instructions: 70000000 cycles: 28703896 heartbeat IPC: 2.50839 cumulative IPC: 2.43869 (Simulation time: 0 hr 6 min 28 sec) 
Heartbeat CPU 0 instructions: 60000000 cycles: 29270088 heartbeat IPC: 2.0734 cumulative IPC: 2.04987 (Simulation time: 0 hr 6 min 36 sec) 
Heartbeat CPU 2 instructions: 80000000 cycles: 32692537 heartbeat IPC: 2.50712 cumulative IPC: 2.44704 (Simulation time: 0 hr 7 min 24 sec) 
Heartbeat CPU 3 instructions: 50000000 cycles: 32747992 heartbeat IPC: 1.52787 cumulative IPC: 1.52681 (Simulation time: 0 hr 7 min 25 sec) 
Heartbeat CPU 1 instructions: 40000000 cycles: 33536910 heartbeat IPC: 1.19356 cumulative IPC: 1.19272 (Simulation time: 0 hr 7 min 36 sec) 
Heartbeat CPU 0 instructions: 70000000 cycles: 34285024 heartbeat IPC: 1.99404 cumulative IPC: 2.04171 (Simulation time: 0 hr 7 min 47 sec) 
Heartbeat CPU 2 instructions: 90000000 cycles: 36686858 heartbeat IPC: 2.50355 cumulative IPC: 2.45319 (Simulation time: 0 hr 8 min 20 sec) 
Heartbeat CPU 0 instructions: 80000000 cycles: 39092182 heartbeat IPC: 2.08023 cumulative IPC: 2.04644 (Simulation time: 0 hr 8 min 54 sec) 
Heartbeat CPU 3 instructions: 60000000 cycles: 39286767 heartbeat IPC: 1.52934 cumulative IPC: 1.52723 (Simulation time: 0 hr 8 min 57 sec) 
Heartbeat CPU 2 instructions: 100000000 cycles: 40673745 heartbeat IPC: 2.50822 cumulative IPC: 2.45859 (Simulation time: 0 hr 9 min 15 sec) 
Heartbeat CPU 1 instructions: 50000001 cycles: 41956933 heartbeat IPC: 1.18765 cumulative IPC: 1.1917 (Simulation time: 0 hr 9 min 33 sec) 
Heartbeat CPU 0 instructions: 90000001 cycles: 44055944 heartbeat IPC: 2.0146 cumulative IPC: 2.04286 (Simulation time: 0 hr 10 min 2 sec) 
Heartbeat CPU 2 instructions: 110000001 cycles: 44645112 heartbeat IPC: 2.51802 cumulative IPC: 2.46388 (Simulation time: 0 hr 10 min 10 sec) 
Heartbeat CPU 3 instructions: 70000000 cycles: 45841529 heartbeat IPC: 1.52561 cumulative IPC: 1.527 (Simulation time: 0 hr 10 min 26 sec) 
Heartbeat CPU 2 instructions: 120000000 cycles: 48603804 heartbeat IPC: 2.52609 cumulative IPC: 2.46894 (Simulation time: 0 hr 11 min 5 sec) 
Heartbeat CPU 0 instructions: 100000000 cycles: 49018501 heartbeat IPC: 2.01509 cumulative IPC: 2.04005 (Simulation time: 0 hr 11 min 11 sec) 
Heartbeat CPU 1 instructions: 60000000 cycles: 50339645 heartbeat IPC: 1.19293 cumulative IPC: 1.1919 (Simulation time: 0 hr 11 min 29 sec) 
Heartbeat CPU 3 instructions: 80000000 cycles: 52368246 heartbeat IPC: 1.53216 cumulative IPC: 1.52764 (Simulation time: 0 hr 11 min 55 sec) 
Heartbeat CPU 2 instructions: 130000002 cycles: 52556611 heartbeat IPC: 2.52985 cumulative IPC: 2.47352 (Simulation time: 0 hr 11 min 58 sec) 
Heartbeat CPU 0 instructions: 110000000 cycles: 54072318 heartbeat IPC: 1.9787 cumulative IPC: 2.03431 (Simulation time: 0 hr 12 min 19 sec) 
Heartbeat CPU 2 instructions: 140000000 cycles: 56513091 heartbeat IPC: 2.5275 cumulative IPC: 2.4773 (Simulation time: 0 hr 12 min 52 sec) 
Heartbeat CPU 1 instructions: 70000003 cycles: 58710687 heartbeat IPC: 1.19459 cumulative IPC: 1.19229 (Simulation time: 0 hr 13 min 23 sec) 
Heartbeat CPU 0 instructions: 120000000 cycles: 58890258 heartbeat IPC: 2.07558 cumulative IPC: 2.03769 (Simulation time: 0 hr 13 min 25 sec) 
Heartbeat CPU 3 instructions: 90000002 cycles: 58891826 heartbeat IPC: 1.5329 cumulative IPC: 1.52823 (Simulation time: 0 hr 13 min 25 sec) 
Heartbeat CPU 2 instructions: 150000002 cycles: 60491868 heartbeat IPC: 2.51334 cumulative IPC: 2.47967 (Simulation time: 0 hr 13 min 47 sec) 
Heartbeat CPU 0 instructions: 130000003 cycles: 63756707 heartbeat IPC: 2.05489 cumulative IPC: 2.039 (Simulation time: 0 hr 14 min 33 sec) 
Heartbeat CPU 2 instructions: 160000000 cycles: 64470758 heartbeat IPC: 2.51326 cumulative IPC: 2.48175 (Simulation time: 0 hr 14 min 42 sec) 
Heartbeat CPU 3 instructions: 100000000 cycles: 65404893 heartbeat IPC: 1.53537 cumulative IPC: 1.52894 (Simulation time: 0 hr 14 min 55 sec) 
Heartbeat CPU 1 instructions: 80000000 cycles: 67100094 heartbeat IPC: 1.19198 cumulative IPC: 1.19225 (Simulation time: 0 hr 15 min 18 sec) 
Heartbeat CPU 2 instructions: 170000003 cycles: 68467399 heartbeat IPC: 2.5021 cumulative IPC: 2.48293 (Simulation time: 0 hr 15 min 37 sec) 
Heartbeat CPU 0 instructions: 140000000 cycles: 68782502 heartbeat IPC: 1.98973 cumulative IPC: 2.0354 (Simulation time: 0 hr 15 min 42 sec) 
Heartbeat CPU 3 instructions: 110000000 cycles: 71911349 heartbeat IPC: 1.53693 cumulative IPC: 1.52966 (Simulation time: 0 hr 16 min 23 sec) 
Heartbeat CPU 2 instructions: 180000000 cycles: 72444029 heartbeat IPC: 2.51469 cumulative IPC: 2.48468 (Simulation time: 0 hr 16 min 30 sec) 
Heartbeat CPU 0 instructions: 150000000 cycles: 73737814 heartbeat IPC: 2.01804 cumulative IPC: 2.03423 (Simulation time: 0 hr 16 min 47 sec) 
Heartbeat CPU 1 instructions: 90000001 cycles: 75506857 heartbeat IPC: 1.18952 cumulative IPC: 1.19194 (Simulation time: 0 hr 17 min 12 sec) 
Heartbeat CPU 2 instructions: 190000002 cycles: 76437774 heartbeat IPC: 2.50392 cumulative IPC: 2.48568 (Simulation time: 0 hr 17 min 24 sec) 
Heartbeat CPU 3 instructions: 120000000 cycles: 78413406 heartbeat IPC: 1.53797 cumulative IPC: 1.53035 (Simulation time: 0 hr 17 min 52 sec) 
Heartbeat CPU 0 instructions: 160000000 cycles: 78639340 heartbeat IPC: 2.04018 cumulative IPC: 2.03461 (Simulation time: 0 hr 17 min 55 sec) 
Heartbeat CPU 2 instructions: 200000000 cycles: 80433599 heartbeat IPC: 2.50261 cumulative IPC: 2.48652 (Simulation time: 0 hr 18 min 20 sec) 
Heartbeat CPU 0 instructions: 170000000 cycles: 83422894 heartbeat IPC: 2.0905 cumulative IPC: 2.03781 (Simulation time: 0 hr 19 min 2 sec) 
Heartbeat CPU 1 instructions: 100000000 cycles: 83885622 heartbeat IPC: 1.19349 cumulative IPC: 1.1921 (Simulation time: 0 hr 19 min 8 sec) 
Heartbeat CPU 2 instructions: 210000003 cycles: 84412601 heartbeat IPC: 2.51319 cumulative IPC: 0.118466 (Simulation time: 0 hr 19 min 15 sec) 
Heartbeat CPU 3 instructions: 130000001 cycles: 84886144 heartbeat IPC: 1.54494 cumulative IPC: 1.53146 (Simulation time: 0 hr 19 min 22 sec) 
Heartbeat CPU 0 instructions: 180000000 cycles: 88327155 heartbeat IPC: 2.03904 cumulative IPC: 2.03788 (Simulation time: 0 hr 20 min 9 sec) 
Heartbeat CPU 2 instructions: 220000000 cycles: 88408299 heartbeat IPC: 2.50269 cumulative IPC: 0.226223 (Simulation time: 0 hr 20 min 10 sec) 
Heartbeat CPU 3 instructions: 140000000 cycles: 91341230 heartbeat IPC: 1.54917 cumulative IPC: 1.53271 (Simulation time: 0 hr 20 min 51 sec) 
Heartbeat CPU 1 instructions: 110000002 cycles: 92267724 heartbeat IPC: 1.19302 cumulative IPC: 1.19218 (Simulation time: 0 hr 21 min 4 sec) 
Heartbeat CPU 2 instructions: 230000000 cycles: 92392127 heartbeat IPC: 2.51015 cumulative IPC: 0.324703 (Simulation time: 0 hr 21 min 5 sec) 
Heartbeat CPU 0 instructions: 190000001 cycles: 93198098 heartbeat IPC: 2.05299 cumulative IPC: 2.03867 (Simulation time: 0 hr 21 min 16 sec) 
Heartbeat CPU 2 instructions: 240000000 cycles: 96384079 heartbeat IPC: 2.50504 cumulative IPC: 0.415006 (Simulation time: 0 hr 21 min 59 sec) 
Heartbeat CPU 3 instructions: 150000000 cycles: 97714336 heartbeat IPC: 1.56909 cumulative IPC: 1.53509 (Simulation time: 0 hr 22 min 17 sec) 
Heartbeat CPU 0 instructions: 200000000 cycles: 98168818 heartbeat IPC: 2.01178 cumulative IPC: 2.03731 (Simulation time: 0 hr 22 min 23 sec) 
Heartbeat CPU 2 instructions: 250000003 cycles: 100374695 heartbeat IPC: 2.50588 cumulative IPC: 0.498134 (Simulation time: 0 hr 22 min 53 sec) 
Heartbeat CPU 1 instructions: 120000000 cycles: 100657627 heartbeat IPC: 1.19191 cumulative IPC: 1.19216 (Simulation time: 0 hr 22 min 57 sec) 
Heartbeat CPU 0 instructions: 210000000 cycles: 103039604 heartbeat IPC: 2.05306 cumulative IPC: 0.0970501 (Simulation time: 0 hr 23 min 31 sec) 
Heartbeat CPU 3 instructions: 160000000 cycles: 104021849 heartbeat IPC: 1.58541 cumulative IPC: 1.53814 (Simulation time: 0 hr 23 min 44 sec) 
Heartbeat CPU 2 instructions: 260000000 cycles: 104361260 heartbeat IPC: 2.50842 cumulative IPC: 0.574926 (Simulation time: 0 hr 23 min 48 sec) 
Heartbeat CPU 0 instructions: 220000000 cycles: 108093980 heartbeat IPC: 1.97848 cumulative IPC: 0.185024 (Simulation time: 0 hr 24 min 40 sec) 
Heartbeat CPU 2 instructions: 270000002 cycles: 108354586 heartbeat IPC: 2.50418 cumulative IPC: 0.646027 (Simulation time: 0 hr 24 min 44 sec) 
Heartbeat CPU 1 instructions: 130000001 cycles: 109061720 heartbeat IPC: 1.1899 cumulative IPC: 1.19199 (Simulation time: 0 hr 24 min 53 sec) 
Heartbeat CPU 3 instructions: 170000000 cycles: 110310917 heartbeat IPC: 1.59006 cumulative IPC: 1.5411 (Simulation time: 0 hr 25 min 10 sec) 
Heartbeat CPU 2 instructions: 280000000 cycles: 112343904 heartbeat IPC: 2.50669 cumulative IPC: 0.712099 (Simulation time: 0 hr 25 min 38 sec) 
Heartbeat CPU 0 instructions: 230000001 cycles: 113058378 heartbeat IPC: 2.01434 cumulative IPC: 0.26535 (Simulation time: 0 hr 25 min 47 sec) 
Heartbeat CPU 2 instructions: 290000001 cycles: 116327566 heartbeat IPC: 2.51025 cumulative IPC: 0.773677 (Simulation time: 0 hr 26 min 32 sec) 
Heartbeat CPU 3 instructions: 180000000 cycles: 116500892 heartbeat IPC: 1.61552 cumulative IPC: 1.54505 (Simulation time: 0 hr 26 min 34 sec) 
Heartbeat CPU 1 instructions: 140000000 cycles: 117440650 heartbeat IPC: 1.19347 cumulative IPC: 1.19209 (Simulation time: 0 hr 26 min 47 sec) 
Heartbeat CPU 0 instructions: 240000000 cycles: 118047956 heartbeat IPC: 2.00418 cumulative IPC: 0.338845 (Simulation time: 0 hr 26 min 55 sec) 
Heartbeat CPU 2 instructions: 300000000 cycles: 120320546 heartbeat IPC: 2.5044 cumulative IPC: 0.831113 (Simulation time: 0 hr 27 min 27 sec) 
Heartbeat CPU 3 instructions: 190000001 cycles: 122732246 heartbeat IPC: 1.60479 cumulative IPC: 1.54809 (Simulation time: 0 hr 28 min 0 sec) 
Heartbeat CPU 0 instructions: 250000002 cycles: 122974717 heartbeat IPC: 2.02973 cumulative IPC: 0.406588 (Simulation time: 0 hr 28 min 3 sec) 
Heartbeat CPU 2 instructions: 310000001 cycles: 124305356 heartbeat IPC: 2.50953 cumulative IPC: 0.884918 (Simulation time: 0 hr 28 min 22 sec) 
Heartbeat CPU 1 instructions: 150000002 cycles: 125811611 heartbeat IPC: 1.19461 cumulative IPC: 1.19226 (Simulation time: 0 hr 28 min 42 sec) 
Heartbeat CPU 0 instructions: 260000000 cycles: 127939484 heartbeat IPC: 2.01419 cumulative IPC: 0.468972 (Simulation time: 0 hr 29 min 11 sec) 
Heartbeat CPU 2 instructions: 320000000 cycles: 128297663 heartbeat IPC: 2.50482 cumulative IPC: 0.935325 (Simulation time: 0 hr 29 min 15 sec) 
Heartbeat CPU 3 instructions: 200000000 cycles: 128981209 heartbeat IPC: 1.60027 cumulative IPC: 1.55061 (Simulation time: 0 hr 29 min 25 sec) 
Heartbeat CPU 2 instructions: 330000003 cycles: 132278540 heartbeat IPC: 2.51201 cumulative IPC: 0.982775 (Simulation time: 0 hr 30 min 11 sec) 
Heartbeat CPU 0 instructions: 270000000 cycles: 132980270 heartbeat IPC: 1.98382 cumulative IPC: 0.526394 (Simulation time: 0 hr 30 min 20 sec) 
Heartbeat CPU 1 instructions: 160000000 cycles: 134210328 heartbeat IPC: 1.19066 cumulative IPC: 1.19216 (Simulation time: 0 hr 30 min 38 sec) 
Heartbeat CPU 3 instructions: 210000002 cycles: 135243583 heartbeat IPC: 1.59684 cumulative IPC: 0.0739407 (Simulation time: 0 hr 30 min 52 sec) 
Heartbeat CPU 2 instructions: 340000000 cycles: 136254377 heartbeat IPC: 2.51519 cumulative IPC: 1.02749 (Simulation time: 0 hr 31 min 6 sec) 
Heartbeat CPU 0 instructions: 280000000 cycles: 137866947 heartbeat IPC: 2.04638 cumulative IPC: 0.58027 (Simulation time: 0 hr 31 min 29 sec) 
Heartbeat CPU 2 instructions: 350000000 cycles: 140211839 heartbeat IPC: 2.52687 cumulative IPC: 1.06981 (Simulation time: 0 hr 32 min 1 sec) 
Heartbeat CPU 3 instructions: 220000000 cycles: 141504904 heartbeat IPC: 1.59711 cumulative IPC: 0.141338 (Simulation time: 0 hr 32 min 18 sec) 
Heartbeat CPU 1 instructions: 170000000 cycles: 142612558 heartbeat IPC: 1.19016 cumulative IPC: 1.19204 (Simulation time: 0 hr 32 min 33 sec) 
Heartbeat CPU 0 instructions: 290000000 cycles: 142714659 heartbeat IPC: 2.06283 cumulative IPC: 0.630629 (Simulation time: 0 hr 32 min 35 sec) 
Heartbeat CPU 2 instructions: 360000000 cycles: 144164252 heartbeat IPC: 2.5301 cumulative IPC: 1.10985 (Simulation time: 0 hr 32 min 54 sec) 
Heartbeat CPU 0 instructions: 300000000 cycles: 147758940 heartbeat IPC: 1.98244 cumulative IPC: 0.676778 (Simulation time: 0 hr 33 min 42 sec) 
Heartbeat CPU 3 instructions: 230000001 cycles: 147811541 heartbeat IPC: 1.58563 cumulative IPC: 0.202961 (Simulation time: 0 hr 33 min 42 sec) 
Heartbeat CPU 2 instructions: 370000002 cycles: 148121887 heartbeat IPC: 2.52676 cumulative IPC: 1.1477 (Simulation time: 0 hr 33 min 47 sec) 
Heartbeat CPU 1 instructions: 180000000 cycles: 150985700 heartbeat IPC: 1.19429 cumulative IPC: 1.19217 (Simulation time: 0 hr 34 min 25 sec) 
Heartbeat CPU 2 instructions: 380000000 cycles: 152090937 heartbeat IPC: 2.51949 cumulative IPC: 1.1835 (Simulation time: 0 hr 34 min 40 sec) 
Heartbeat CPU 0 instructions: 310000003 cycles: 152653263 heartbeat IPC: 2.04318 cumulative IPC: 0.720587 (Simulation time: 0 hr 34 min 47 sec) 
Heartbeat CPU 3 instructions: 240000000 cycles: 154153623 heartbeat IPC: 1.57677 cumulative IPC: 0.259481 (Simulation time: 0 hr 35 min 7 sec) 
Heartbeat CPU 2 instructions: 390000003 cycles: 156086253 heartbeat IPC: 2.50293 cumulative IPC: 1.21728 (Simulation time: 0 hr 35 min 33 sec) 
Heartbeat CPU 0 instructions: 320000000 cycles: 157595023 heartbeat IPC: 2.02357 cumulative IPC: 0.761445 (Simulation time: 0 hr 35 min 52 sec) 
Heartbeat CPU 1 instructions: 190000001 cycles: 159368016 heartbeat IPC: 1.19299 cumulative IPC: 1.19221 (Simulation time: 0 hr 36 min 16 sec) 
Heartbeat CPU 2 instructions: 400000000 cycles: 160072199 heartbeat IPC: 2.50881 cumulative IPC: 1.24944 (Simulation time: 0 hr 36 min 26 sec) 
Heartbeat CPU 3 instructions: 250000000 cycles: 160534617 heartbeat IPC: 1.56715 cumulative IPC: 0.311459 (Simulation time: 0 hr 36 min 32 sec) 
Heartbeat CPU 0 instructions: 330000003 cycles: 162411501 heartbeat IPC: 2.07621 cumulative IPC: 0.800436 (Simulation time: 0 hr 36 min 57 sec) 
Heartbeat CPU 2 instructions: 410000000 cycles: 164063718 heartbeat IPC: 2.50531 cumulative IPC: 1.27999 (Simulation time: 0 hr 37 min 19 sec) 
Heartbeat CPU 3 instructions: 260000000 cycles: 166927961 heartbeat IPC: 1.56413 cumulative IPC: 0.359436 (Simulation time: 0 hr 37 min 57 sec) 
Heartbeat CPU 0 instructions: 340000000 cycles: 167465642 heartbeat IPC: 1.97857 cumulative IPC: 0.835992 (Simulation time: 0 hr 38 min 4 sec) 
Heartbeat CPU 1 instructions: 200000000 cycles: 167757334 heartbeat IPC: 1.19199 cumulative IPC: 1.1922 (Simulation time: 0 hr 38 min 7 sec) 

Warmup complete CPU 0 instructions: 340476954 cycles: 167757353 (Simulation time: 0 hr 38 min 7 sec) 
Warmup complete CPU 1 instructions: 200000001 cycles: 167757353 (Simulation time: 0 hr 38 min 7 sec) 
Warmup complete CPU 2 instructions: 419264568 cycles: 167757352 (Simulation time: 0 hr 38 min 7 sec) 
Warmup complete CPU 3 instructions: 261286833 cycles: 167757352 (Simulation time: 0 hr 38 min 7 sec) 

Heartbeat CPU 2 instructions: 420000000 cycles: 168405819 heartbeat IPC: 2.30303 cumulative IPC: 1.13411 (Simulation time: 0 hr 38 min 12 sec) 
Heartbeat CPU 2 instructions: 430000002 cycles: 177234333 heartbeat IPC: 1.13269 cumulative IPC: 1.13279 (Simulation time: 0 hr 39 min 8 sec) 
Heartbeat CPU 1 instructions: 210000002 cycles: 185019803 heartbeat IPC: 0.579292 cumulative IPC: 0.579292 (Simulation time: 0 hr 39 min 58 sec) 
Heartbeat CPU 2 instructions: 440000000 cycles: 185791059 heartbeat IPC: 1.16867 cumulative IPC: 1.14982 (Simulation time: 0 hr 40 min 3 sec) 
Heartbeat CPU 2 instructions: 450000001 cycles: 194321996 heartbeat IPC: 1.1722 cumulative IPC: 1.15701 (Simulation time: 0 hr 40 min 57 sec) 
Heartbeat CPU 3 instructions: 270000000 cycles: 198585991 heartbeat IPC: 0.315876 cumulative IPC: 0.282632 (Simulation time: 0 hr 41 min 24 sec) 
Heartbeat CPU 1 instructions: 220000000 cycles: 202241409 heartbeat IPC: 0.580666 cumulative IPC: 0.579978 (Simulation time: 0 hr 41 min 48 sec) 
Heartbeat CPU 2 instructions: 460000000 cycles: 202861006 heartbeat IPC: 1.1711 cumulative IPC: 1.16043 (Simulation time: 0 hr 41 min 52 sec) 
Heartbeat CPU 0 instructions: 350000002 cycles: 206984068 heartbeat IPC: 0.253047 cumulative IPC: 0.242769 (Simulation time: 0 hr 42 min 18 sec) 
Heartbeat CPU 2 instructions: 470000000 cycles: 213435209 heartbeat IPC: 0.945698 cumulative IPC: 1.11072 (Simulation time: 0 hr 43 min 1 sec) 
Heartbeat CPU 1 instructions: 230000002 cycles: 219992269 heartbeat IPC: 0.563353 cumulative IPC: 0.574328 (Simulation time: 0 hr 43 min 41 sec) 
Heartbeat CPU 2 instructions: 480000000 cycles: 222762900 heartbeat IPC: 1.07208 cumulative IPC: 1.10417 (Simulation time: 0 hr 44 min 0 sec) 
Heartbeat CPU 2 instructions: 490000000 cycles: 231599742 heartbeat IPC: 1.13163 cumulative IPC: 1.10797 (Simulation time: 0 hr 44 min 54 sec) 
Heartbeat CPU 3 instructions: 280000000 cycles: 234534359 heartbeat IPC: 0.278177 cumulative IPC: 0.280234 (Simulation time: 0 hr 45 min 13 sec) 
Heartbeat CPU 1 instructions: 240000000 cycles: 237250557 heartbeat IPC: 0.579432 cumulative IPC: 0.575596 (Simulation time: 0 hr 45 min 30 sec) 
Heartbeat CPU 2 instructions: 500000000 cycles: 240479908 heartbeat IPC: 1.12611 cumulative IPC: 1.11018 (Simulation time: 0 hr 45 min 50 sec) 
Heartbeat CPU 0 instructions: 360000000 cycles: 244649761 heartbeat IPC: 0.265494 cumulative IPC: 0.253901 (Simulation time: 0 hr 46 min 17 sec) 
Heartbeat CPU 2 instructions: 510000003 cycles: 249439249 heartbeat IPC: 1.11615 cumulative IPC: 1.11084 (Simulation time: 0 hr 46 min 46 sec) 
Heartbeat CPU 1 instructions: 250000001 cycles: 254521588 heartbeat IPC: 0.579004 cumulative IPC: 0.576274 (Simulation time: 0 hr 47 min 19 sec) 
Heartbeat CPU 2 instructions: 520000000 cycles: 258395216 heartbeat IPC: 1.11657 cumulative IPC: 1.11141 (Simulation time: 0 hr 47 min 43 sec) 
Heartbeat CPU 2 instructions: 530000001 cycles: 267937388 heartbeat IPC: 1.04798 cumulative IPC: 1.10536 (Simulation time: 0 hr 48 min 42 sec) 
Heartbeat CPU 3 instructions: 290000000 cycles: 270117015 heartbeat IPC: 0.281036 cumulative IPC: 0.280513 (Simulation time: 0 hr 48 min 56 sec) 
Heartbeat CPU 1 instructions: 260000000 cycles: 271783650 heartbeat IPC: 0.579305 cumulative IPC: 0.576777 (Simulation time: 0 hr 49 min 7 sec) 
Heartbeat CPU 2 instructions: 540000000 cycles: 277574774 heartbeat IPC: 1.03763 cumulative IPC: 1.09942 (Simulation time: 0 hr 49 min 42 sec) 
Heartbeat CPU 0 instructions: 370000002 cycles: 285281355 heartbeat IPC: 0.246114 cumulative IPC: 0.251209 (Simulation time: 0 hr 50 min 30 sec) 
Heartbeat CPU 2 instructions: 550000000 cycles: 287197418 heartbeat IPC: 1.03922 cumulative IPC: 1.09457 (Simulation time: 0 hr 50 min 41 sec) 
Heartbeat CPU 1 instructions: 270000001 cycles: 289091411 heartbeat IPC: 0.577776 cumulative IPC: 0.57692 (Simulation time: 0 hr 50 min 54 sec) 
Heartbeat CPU 2 instructions: 560000000 cycles: 296800413 heartbeat IPC: 1.04134 cumulative IPC: 1.09061 (Simulation time: 0 hr 51 min 42 sec) 
Heartbeat CPU 3 instructions: 300000000 cycles: 305427535 heartbeat IPC: 0.283202 cumulative IPC: 0.281202 (Simulation time: 0 hr 52 min 29 sec) 
Heartbeat CPU 2 instructions: 570000002 cycles: 306428819 heartbeat IPC: 1.03859 cumulative IPC: 1.087 (Simulation time: 0 hr 52 min 33 sec) 
Heartbeat CPU 2 instructions: 580000000 cycles: 316031224 heartbeat IPC: 1.04141 cumulative IPC: 1.08404 (Simulation time: 0 hr 53 min 20 sec) 
Heartbeat CPU 2 instructions: 590000000 cycles: 325705645 heartbeat IPC: 1.03365 cumulative IPC: 1.08096 (Simulation time: 0 hr 54 min 8 sec) 
Heartbeat CPU 0 instructions: 380000000 cycles: 326512782 heartbeat IPC: 0.242533 cumulative IPC: 0.248956 (Simulation time: 0 hr 54 min 11 sec) 
Heartbeat CPU 1 instructions: 280000000 cycles: 334694354 heartbeat IPC: 0.219284 cumulative IPC: 0.479223 (Simulation time: 0 hr 54 min 51 sec) 
Heartbeat CPU 2 instructions: 600000000 cycles: 335386438 heartbeat IPC: 1.03297 cumulative IPC: 1.07819 (Simulation time: 0 hr 54 min 54 sec) 
Heartbeat CPU 3 instructions: 310000003 cycles: 342491479 heartbeat IPC: 0.269804 cumulative IPC: 0.278785 (Simulation time: 0 hr 55 min 29 sec) 
Heartbeat CPU 2 instructions: 610000003 cycles: 345068384 heartbeat IPC: 1.03285 cumulative IPC: 1.07571 (Simulation time: 0 hr 55 min 41 sec) 
Heartbeat CPU 2 instructions: 620000000 cycles: 354746889 heartbeat IPC: 1.03322 cumulative IPC: 1.07351 (Simulation time: 0 hr 56 min 27 sec) 
Heartbeat CPU 2 instructions: 630000002 cycles: 364423852 heartbeat IPC: 1.03338 cumulative IPC: 1.07154 (Simulation time: 0 hr 57 min 14 sec) 
Heartbeat CPU 0 instructions: 390000000 cycles: 371669864 heartbeat IPC: 0.221449 cumulative IPC: 0.242864 (Simulation time: 0 hr 57 min 48 sec) 
Heartbeat CPU 2 instructions: 640000000 cycles: 374005118 heartbeat IPC: 1.0437 cumulative IPC: 1.07024 (Simulation time: 0 hr 58 min 0 sec) 
Heartbeat CPU 3 instructions: 320000000 cycles: 379608748 heartbeat IPC: 0.269416 cumulative IPC: 0.277143 (Simulation time: 0 hr 58 min 27 sec) 
Heartbeat CPU 2 instructions: 650000000 cycles: 382954678 heartbeat IPC: 1.11737 cumulative IPC: 1.0722 (Simulation time: 0 hr 58 min 48 sec) 
Heartbeat CPU 1 instructions: 290000000 cycles: 387901216 heartbeat IPC: 0.187946 cumulative IPC: 0.408824 (Simulation time: 0 hr 59 min 19 sec) 
Heartbeat CPU 2 instructions: 660000000 cycles: 391822407 heartbeat IPC: 1.12768 cumulative IPC: 1.0744 (Simulation time: 0 hr 59 min 44 sec) 
Heartbeat CPU 2 instructions: 670000000 cycles: 401028850 heartbeat IPC: 1.0862 cumulative IPC: 1.07487 (Simulation time: 1 hr 0 min 42 sec) 
Heartbeat CPU 1 instructions: 300000000 cycles: 405122769 heartbeat IPC: 0.580668 cumulative IPC: 0.421291 (Simulation time: 1 hr 1 min 8 sec) 
Heartbeat CPU 2 instructions: 680000000 cycles: 409864726 heartbeat IPC: 1.13175 cumulative IPC: 1.07694 (Simulation time: 1 hr 1 min 38 sec) 
Heartbeat CPU 3 instructions: 330000002 cycles: 414912979 heartbeat IPC: 0.283252 cumulative IPC: 0.278016 (Simulation time: 1 hr 2 min 9 sec) 
Heartbeat CPU 0 instructions: 400000000 cycles: 414950181 heartbeat IPC: 0.231052 cumulative IPC: 0.240796 (Simulation time: 1 hr 2 min 10 sec) 
Heartbeat CPU 2 instructions: 690000000 cycles: 418661512 heartbeat IPC: 1.13678 cumulative IPC: 1.07904 (Simulation time: 1 hr 2 min 34 sec) 
Heartbeat CPU 1 instructions: 310000002 cycles: 422343600 heartbeat IPC: 0.580692 cumulative IPC: 0.432074 (Simulation time: 1 hr 2 min 57 sec) 
Heartbeat CPU 2 instructions: 700000000 cycles: 427453564 heartbeat IPC: 1.13739 cumulative IPC: 1.08101 (Simulation time: 1 hr 3 min 30 sec) 
Heartbeat CPU 2 instructions: 710000002 cycles: 436247739 heartbeat IPC: 1.13712 cumulative IPC: 1.08285 (Simulation time: 1 hr 4 min 24 sec) 
Heartbeat CPU 1 instructions: 320000000 cycles: 439549473 heartbeat IPC: 0.581197 cumulative IPC: 0.441514 (Simulation time: 1 hr 4 min 45 sec) 
Heartbeat CPU 2 instructions: 720000000 cycles: 445113356 heartbeat IPC: 1.12795 cumulative IPC: 1.08429 (Simulation time: 1 hr 5 min 22 sec) 
Heartbeat CPU 3 instructions: 340000000 cycles: 450282953 heartbeat IPC: 0.282726 cumulative IPC: 0.278605 (Simulation time: 1 hr 5 min 55 sec) 
Heartbeat CPU 2 instructions: 730000003 cycles: 456056459 heartbeat IPC: 0.913818 cumulative IPC: 1.07782 (Simulation time: 1 hr 6 min 32 sec) 
Heartbeat CPU 0 instructions: 410000001 cycles: 456211756 heartbeat IPC: 0.242356 cumulative IPC: 0.241019 (Simulation time: 1 hr 6 min 33 sec) 
Heartbeat CPU 1 instructions: 330000002 cycles: 457297716 heartbeat IPC: 0.563436 cumulative IPC: 0.448987 (Simulation time: 1 hr 6 min 40 sec) 
Heartbeat CPU 2 instructions: 740000000 cycles: 465042232 heartbeat IPC: 1.11287 cumulative IPC: 1.07888 (Simulation time: 1 hr 7 min 29 sec) 
Heartbeat CPU 2 instructions: 750000001 cycles: 473796201 heartbeat IPC: 1.14234 cumulative IPC: 1.0807 (Simulation time: 1 hr 8 min 24 sec) 
Heartbeat CPU 1 instructions: 340000000 cycles: 474679051 heartbeat IPC: 0.57533 cumulative IPC: 0.456142 (Simulation time: 1 hr 8 min 29 sec) 
Heartbeat CPU 2 instructions: 760000000 cycles: 482564846 heartbeat IPC: 1.14043 cumulative IPC: 1.08236 (Simulation time: 1 hr 9 min 20 sec) 
Heartbeat CPU 3 instructions: 350000001 cycles: 486633439 heartbeat IPC: 0.2751 cumulative IPC: 0.278206 (Simulation time: 1 hr 9 min 45 sec) 
Heartbeat CPU 2 instructions: 770000003 cycles: 491318561 heartbeat IPC: 1.14237 cumulative IPC: 1.08398 (Simulation time: 1 hr 10 min 14 sec) 
Heartbeat CPU 1 instructions: 350000003 cycles: 491967418 heartbeat IPC: 0.578424 cumulative IPC: 0.462663 (Simulation time: 1 hr 10 min 18 sec) 
Heartbeat CPU 0 instructions: 420000000 cycles: 498978995 heartbeat IPC: 0.233824 cumulative IPC: 0.24009 (Simulation time: 1 hr 11 min 3 sec) 
Heartbeat CPU 2 instructions: 780000000 cycles: 500130986 heartbeat IPC: 1.13476 cumulative IPC: 1.08533 (Simulation time: 1 hr 11 min 11 sec) 
Heartbeat CPU 2 instructions: 790000001 cycles: 509004858 heartbeat IPC: 1.1269 cumulative IPC: 1.08641 (Simulation time: 1 hr 12 min 8 sec) 
Heartbeat CPU 1 instructions: 360000000 cycles: 509248002 heartbeat IPC: 0.578684 cumulative IPC: 0.468534 (Simulation time: 1 hr 12 min 9 sec) 
Heartbeat CPU 2 instructions: 800000000 cycles: 518031607 heartbeat IPC: 1.10782 cumulative IPC: 1.08696 (Simulation time: 1 hr 13 min 4 sec) 
Heartbeat CPU 3 instructions: 360000000 cycles: 521881218 heartbeat IPC: 0.283706 cumulative IPC: 0.278753 (Simulation time: 1 hr 13 min 28 sec) 
Heartbeat CPU 1 instructions: 370000000 cycles: 526609406 heartbeat IPC: 0.57599 cumulative IPC: 0.473733 (Simulation time: 1 hr 13 min 59 sec) 
Heartbeat CPU 2 instructions: 810000000 cycles: 527289716 heartbeat IPC: 1.08013 cumulative IPC: 1.08679 (Simulation time: 1 hr 14 min 3 sec) 
Heartbeat CPU 2 instructions: 820000000 cycles: 536607797 heartbeat IPC: 1.07318 cumulative IPC: 1.08644 (Simulation time: 1 hr 15 min 3 sec) 
Heartbeat CPU 0 instructions: 430000002 cycles: 541882862 heartbeat IPC: 0.233079 cumulative IPC: 0.239286 (Simulation time: 1 hr 15 min 36 sec) 
Heartbeat CPU 1 instructions: 380000000 cycles: 543937231 heartbeat IPC: 0.577106 cumulative IPC: 0.478494 (Simulation time: 1 hr 15 min 50 sec) 
Heartbeat CPU 2 instructions: 830000003 cycles: 545646203 heartbeat IPC: 1.10639 cumulative IPC: 1.08692 (Simulation time: 1 hr 16 min 1 sec) 
Heartbeat CPU 2 instructions: 840000000 cycles: 554697431 heartbeat IPC: 1.10482 cumulative IPC: 1.08734 (Simulation time: 1 hr 16 min 56 sec) 
Heartbeat CPU 3 instructions: 370000001 cycles: 557314507 heartbeat IPC: 0.282221 cumulative IPC: 0.279069 (Simulation time: 1 hr 17 min 13 sec) 
Heartbeat CPU 1 instructions: 390000001 cycles: 561280678 heartbeat IPC: 0.576587 cumulative IPC: 0.482818 (Simulation time: 1 hr 17 min 38 sec) 
Heartbeat CPU 2 instructions: 850000000 cycles: 563735618 heartbeat IPC: 1.10642 cumulative IPC: 1.08778 (Simulation time: 1 hr 17 min 55 sec) 
Heartbeat CPU 2 instructions: 860000000 cycles: 572775830 heartbeat IPC: 1.10617 cumulative IPC: 1.08819 (Simulation time: 1 hr 18 min 52 sec) 
Heartbeat CPU 1 instructions: 400000000 cycles: 578668663 heartbeat IPC: 0.57511 cumulative IPC: 0.486723 (Simulation time: 1 hr 19 min 28 sec) 
Heartbeat CPU 0 instructions: 440000000 cycles: 580691790 heartbeat IPC: 0.257673 cumulative IPC: 0.241014 (Simulation time: 1 hr 19 min 42 sec) 
Heartbeat CPU 2 instructions: 870000002 cycles: 581810984 heartbeat IPC: 1.10679 cumulative IPC: 1.08859 (Simulation time: 1 hr 19 min 49 sec) 
Heartbeat CPU 2 instructions: 880000000 cycles: 590840607 heartbeat IPC: 1.10747 cumulative IPC: 1.08899 (Simulation time: 1 hr 20 min 46 sec) 
Heartbeat CPU 3 instructions: 380000000 cycles: 593329191 heartbeat IPC: 0.277664 cumulative IPC: 0.27895 (Simulation time: 1 hr 21 min 1 sec) 
Heartbeat CPU 1 instructions: 410000000 cycles: 596007124 heartbeat IPC: 0.576752 cumulative IPC: 0.490368 (Simulation time: 1 hr 21 min 18 sec) 
Heartbeat CPU 2 instructions: 890000000 cycles: 599895972 heartbeat IPC: 1.10432 cumulative IPC: 1.08932 (Simulation time: 1 hr 21 min 42 sec) 
Heartbeat CPU 2 instructions: 900000000 cycles: 608938772 heartbeat IPC: 1.10585 cumulative IPC: 1.08965 (Simulation time: 1 hr 22 min 39 sec) 
Heartbeat CPU 1 instructions: 420000000 cycles: 613341353 heartbeat IPC: 0.576893 cumulative IPC: 0.493734 (Simulation time: 1 hr 23 min 7 sec) 
Heartbeat CPU 2 instructions: 910000001 cycles: 617979136 heartbeat IPC: 1.10615 cumulative IPC: 1.08999 (Simulation time: 1 hr 23 min 37 sec) 
Heartbeat CPU 2 instructions: 920000000 cycles: 627016201 heartbeat IPC: 1.10655 cumulative IPC: 1.09031 (Simulation time: 1 hr 24 min 33 sec) 
Heartbeat CPU 0 instructions: 450000002 cycles: 628025201 heartbeat IPC: 0.211267 cumulative IPC: 0.237955 (Simulation time: 1 hr 24 min 39 sec) 
Heartbeat CPU 3 instructions: 390000001 cycles: 629412672 heartbeat IPC: 0.277135 cumulative IPC: 0.278808 (Simulation time: 1 hr 24 min 48 sec) 
Heartbeat CPU 1 instructions: 430000003 cycles: 630721732 heartbeat IPC: 0.575362 cumulative IPC: 0.496798 (Simulation time: 1 hr 24 min 56 sec) 
Heartbeat CPU 2 instructions: 930000003 cycles: 636490437 heartbeat IPC: 1.05549 cumulative IPC: 1.08961 (Simulation time: 1 hr 25 min 34 sec) 
Heartbeat CPU 2 instructions: 940000000 cycles: 645513001 heartbeat IPC: 1.10833 cumulative IPC: 1.08996 (Simulation time: 1 hr 26 min 30 sec) 
Heartbeat CPU 1 instructions: 440000000 cycles: 648107359 heartbeat IPC: 0.575188 cumulative IPC: 0.499636 (Simulation time: 1 hr 26 min 46 sec) 
Heartbeat CPU 2 instructions: 950000002 cycles: 654614168 heartbeat IPC: 1.09876 cumulative IPC: 1.09013 (Simulation time: 1 hr 27 min 27 sec) 
Heartbeat CPU 2 instructions: 960000000 cycles: 663669202 heartbeat IPC: 1.10436 cumulative IPC: 1.09039 (Simulation time: 1 hr 28 min 25 sec) 
Heartbeat CPU 1 instructions: 450000002 cycles: 665434246 heartbeat IPC: 0.577138 cumulative IPC: 0.502334 (Simulation time: 1 hr 28 min 36 sec) 
Heartbeat CPU 3 instructions: 400000000 cycles: 666304102 heartbeat IPC: 0.271066 cumulative IPC: 0.278235 (Simulation time: 1 hr 28 min 42 sec) 
Heartbeat CPU 0 instructions: 460000000 cycles: 671139130 heartbeat IPC: 0.231944 cumulative IPC: 0.23744 (Simulation time: 1 hr 29 min 12 sec) 
Heartbeat CPU 2 instructions: 970000001 cycles: 672468789 heartbeat IPC: 1.13642 cumulative IPC: 1.09119 (Simulation time: 1 hr 29 min 20 sec) 
Heartbeat CPU 2 instructions: 980000000 cycles: 681242855 heartbeat IPC: 1.13972 cumulative IPC: 1.09202 (Simulation time: 1 hr 30 min 16 sec) 
Heartbeat CPU 1 instructions: 460000000 cycles: 682809286 heartbeat IPC: 0.575538 cumulative IPC: 0.504803 (Simulation time: 1 hr 30 min 25 sec) 
Heartbeat CPU 2 instructions: 990000003 cycles: 690006325 heartbeat IPC: 1.1411 cumulative IPC: 1.09284 (Simulation time: 1 hr 31 min 7 sec) 
Heartbeat CPU 2 instructions: 1000000000 cycles: 698769202 heartbeat IPC: 1.14118 cumulative IPC: 1.09364 (Simulation time: 1 hr 32 min 2 sec) 
Heartbeat CPU 1 instructions: 470000003 cycles: 700271478 heartbeat IPC: 0.572666 cumulative IPC: 0.507029 (Simulation time: 1 hr 32 min 12 sec) 
Heartbeat CPU 3 instructions: 410000003 cycles: 707643221 heartbeat IPC: 0.241902 cumulative IPC: 0.275453 (Simulation time: 1 hr 32 min 59 sec) 
Heartbeat CPU 2 instructions: 1010000001 cycles: 708172388 heartbeat IPC: 1.06347 cumulative IPC: 1.09311 (Simulation time: 1 hr 33 min 3 sec) 
Heartbeat CPU 0 instructions: 470000000 cycles: 715786131 heartbeat IPC: 0.223979 cumulative IPC: 0.236344 (Simulation time: 1 hr 33 min 51 sec) 
Heartbeat CPU 1 instructions: 480000000 cycles: 718119489 heartbeat IPC: 0.560286 cumulative IPC: 0.508756 (Simulation time: 1 hr 34 min 6 sec) 
Heartbeat CPU 2 instructions: 1020000000 cycles: 718548082 heartbeat IPC: 0.963791 cumulative IPC: 1.09068 (Simulation time: 1 hr 34 min 9 sec) 
Heartbeat CPU 2 instructions: 1030000001 cycles: 727094416 heartbeat IPC: 1.17009 cumulative IPC: 1.09189 (Simulation time: 1 hr 35 min 3 sec) 
Heartbeat CPU 1 instructions: 490000000 cycles: 735493574 heartbeat IPC: 0.57557 cumulative IPC: 0.510801 (Simulation time: 1 hr 35 min 56 sec) 
Heartbeat CPU 2 instructions: 1040000000 cycles: 735622299 heartbeat IPC: 1.17262 cumulative IPC: 1.0931 (Simulation time: 1 hr 35 min 57 sec) 
Heartbeat CPU 2 instructions: 1050000000 cycles: 744161996 heartbeat IPC: 1.171 cumulative IPC: 1.09426 (Simulation time: 1 hr 36 min 51 sec) 
Heartbeat CPU 3 instructions: 420000000 cycles: 744302431 heartbeat IPC: 0.272783 cumulative IPC: 0.275283 (Simulation time: 1 hr 36 min 52 sec) 
Heartbeat CPU 1 instructions: 500000000 cycles: 752921362 heartbeat IPC: 0.573796 cumulative IPC: 0.512677 (Simulation time: 1 hr 37 min 49 sec) 
Heartbeat CPU 2 instructions: 1060000000 cycles: 752989618 heartbeat IPC: 1.13281 cumulative IPC: 1.09484 (Simulation time: 1 hr 37 min 49 sec) 
Heartbeat CPU 0 instructions: 480000000 cycles: 755680518 heartbeat IPC: 0.250662 cumulative IPC: 0.237315 (Simulation time: 1 hr 38 min 6 sec) 
Heartbeat CPU 2 instructions: 1070000002 cycles: 762037303 heartbeat IPC: 1.10526 cumulative IPC: 1.095 (Simulation time: 1 hr 38 min 46 sec) 
Heartbeat CPU 1 instructions: 510000000 cycles: 770326576 heartbeat IPC: 0.57454 cumulative IPC: 0.514464 (Simulation time: 1 hr 39 min 39 sec) 
Heartbeat CPU 2 instructions: 1080000000 cycles: 771348043 heartbeat IPC: 1.07403 cumulative IPC: 1.09467 (Simulation time: 1 hr 39 min 45 sec) 
Heartbeat CPU 3 instructions: 430000001 cycles: 780568867 heartbeat IPC: 0.275737 cumulative IPC: 0.27531 (Simulation time: 1 hr 40 min 44 sec) 
Heartbeat CPU 2 instructions: 1090000001 cycles: 780812805 heartbeat IPC: 1.05655 cumulative IPC: 1.09409 (Simulation time: 1 hr 40 min 46 sec) 
Heartbeat CPU 1 instructions: 520000000 cycles: 787677070 heartbeat IPC: 0.576352 cumulative IPC: 0.516196 (Simulation time: 1 hr 41 min 29 sec) 
Heartbeat CPU 2 instructions: 1100000000 cycles: 790019165 heartbeat IPC: 1.08621 cumulative IPC: 1.09397 (Simulation time: 1 hr 41 min 44 sec) 
Heartbeat CPU 2 instructions: 1110000000 cycles: 799053247 heartbeat IPC: 1.10692 cumulative IPC: 1.09415 (Simulation time: 1 hr 42 min 41 sec) 
Heartbeat CPU 0 instructions: 490000000 cycles: 801478277 heartbeat IPC: 0.218351 cumulative IPC: 0.235945 (Simulation time: 1 hr 42 min 55 sec) 
Heartbeat CPU 1 instructions: 530000002 cycles: 805048752 heartbeat IPC: 0.57565 cumulative IPC: 0.517816 (Simulation time: 1 hr 43 min 17 sec) 
Heartbeat CPU 2 instructions: 1120000000 cycles: 807996715 heartbeat IPC: 1.11813 cumulative IPC: 1.09449 (Simulation time: 1 hr 43 min 35 sec) 
Heartbeat CPU 3 instructions: 440000000 cycles: 816775015 heartbeat IPC: 0.276196 cumulative IPC: 0.275359 (Simulation time: 1 hr 44 min 31 sec) 
Heartbeat CPU 2 instructions: 1130000002 cycles: 817336837 heartbeat IPC: 1.07065 cumulative IPC: 1.09415 (Simulation time: 1 hr 44 min 35 sec) 
Heartbeat CPU 1 instructions: 540000000 cycles: 822406877 heartbeat IPC: 0.576099 cumulative IPC: 0.519362 (Simulation time: 1 hr 45 min 6 sec) 
Heartbeat CPU 2 instructions: 1140000000 cycles: 826335938 heartbeat IPC: 1.11122 cumulative IPC: 1.09438 (Simulation time: 1 hr 45 min 30 sec) 
Heartbeat CPU 2 instructions: 1150000000 cycles: 835320346 heartbeat IPC: 1.11304 cumulative IPC: 1.09463 (Simulation time: 1 hr 46 min 27 sec) 
Heartbeat CPU 1 instructions: 550000000 cycles: 839745363 heartbeat IPC: 0.576752 cumulative IPC: 0.520843 (Simulation time: 1 hr 46 min 54 sec) 
Heartbeat CPU 2 instructions: 1160000000 cycles: 844449365 heartbeat IPC: 1.09541 cumulative IPC: 1.09464 (Simulation time: 1 hr 47 min 24 sec) 
Heartbeat CPU 0 instructions: 500000000 cycles: 845611314 heartbeat IPC: 0.226588 cumulative IPC: 0.235335 (Simulation time: 1 hr 47 min 31 sec) 
Heartbeat CPU 3 instructions: 450000001 cycles: 853155106 heartbeat IPC: 0.274876 cumulative IPC: 0.275334 (Simulation time: 1 hr 48 min 18 sec) 
Heartbeat CPU 2 instructions: 1170000001 cycles: 853442374 heartbeat IPC: 1.11197 cumulative IPC: 1.09487 (Simulation time: 1 hr 48 min 20 sec) 
Heartbeat CPU 1 instructions: 560000000 cycles: 857092009 heartbeat IPC: 0.57648 cumulative IPC: 0.522243 (Simulation time: 1 hr 48 min 43 sec) 
Heartbeat CPU 2 instructions: 1180000000 cycles: 862570085 heartbeat IPC: 1.09556 cumulative IPC: 1.09488 (Simulation time: 1 hr 49 min 17 sec) 
Heartbeat CPU 2 instructions: 1190000002 cycles: 871569915 heartbeat IPC: 1.11113 cumulative IPC: 1.09509 (Simulation time: 1 hr 50 min 14 sec) 
Heartbeat CPU 1 instructions: 570000001 cycles: 874481430 heartbeat IPC: 0.575062 cumulative IPC: 0.523542 (Simulation time: 1 hr 50 min 33 sec) 
Heartbeat CPU 2 instructions: 1200000000 cycles: 880690191 heartbeat IPC: 1.09646 cumulative IPC: 1.0951 (Simulation time: 1 hr 51 min 12 sec) 
Heartbeat CPU 0 instructions: 510000000 cycles: 887230625 heartbeat IPC: 0.240273 cumulative IPC: 0.235621 (Simulation time: 1 hr 51 min 54 sec) 
Heartbeat CPU 3 instructions: 460000000 cycles: 889189784 heartbeat IPC: 0.27751 cumulative IPC: 0.275443 (Simulation time: 1 hr 52 min 6 sec) 
Heartbeat CPU 2 instructions: 1210000000 cycles: 889648684 heartbeat IPC: 1.11626 cumulative IPC: 1.09537 (Simulation time: 1 hr 52 min 9 sec) 
Heartbeat CPU 1 instructions: 580000000 cycles: 891836759 heartbeat IPC: 0.576192 cumulative IPC: 0.524804 (Simulation time: 1 hr 52 min 23 sec) 
Heartbeat CPU 2 instructions: 1220000000 cycles: 898638544 heartbeat IPC: 1.11236 cumulative IPC: 1.09558 (Simulation time: 1 hr 53 min 5 sec) 
Heartbeat CPU 2 instructions: 1230000001 cycles: 907771617 heartbeat IPC: 1.09492 cumulative IPC: 1.09557 (Simulation time: 1 hr 54 min 2 sec) 
Heartbeat CPU 1 instructions: 590000003 cycles: 909183236 heartbeat IPC: 0.576486 cumulative IPC: 0.526013 (Simulation time: 1 hr 54 min 11 sec) 
Heartbeat CPU 2 instructions: 1240000000 cycles: 916760172 heartbeat IPC: 1.11253 cumulative IPC: 1.09577 (Simulation time: 1 hr 54 min 58 sec) 
Heartbeat CPU 3 instructions: 470000000 cycles: 925215089 heartbeat IPC: 0.277583 cumulative IPC: 0.275544 (Simulation time: 1 hr 55 min 51 sec) 
Heartbeat CPU 2 instructions: 1250000000 cycles: 926090085 heartbeat IPC: 1.07182 cumulative IPC: 1.09548 (Simulation time: 1 hr 55 min 57 sec) 
Heartbeat CPU 1 instructions: 600000000 cycles: 926522145 heartbeat IPC: 0.576737 cumulative IPC: 0.527173 (Simulation time: 1 hr 56 min 0 sec) 
Heartbeat CPU 0 instructions: 520000000 cycles: 933807245 heartbeat IPC: 0.2147 cumulative IPC: 0.234349 (Simulation time: 1 hr 56 min 46 sec) 
Heartbeat CPU 2 instructions: 1260000000 cycles: 935046940 heartbeat IPC: 1.11646 cumulative IPC: 1.09572 (Simulation time: 1 hr 56 min 54 sec) 
Heartbeat CPU 1 instructions: 610000000 cycles: 942506079 heartbeat IPC: 0.625628 cumulative IPC: 0.529204 (Simulation time: 1 hr 57 min 44 sec) 
Heartbeat CPU 2 instructions: 1270000002 cycles: 944006997 heartbeat IPC: 1.11606 cumulative IPC: 1.09596 (Simulation time: 1 hr 57 min 54 sec) 
Heartbeat CPU 2 instructions: 1280000000 cycles: 953315953 heartbeat IPC: 1.07423 cumulative IPC: 1.0957 (Simulation time: 1 hr 59 min 0 sec) 
Heartbeat CPU 1 instructions: 620000000 cycles: 954903512 heartbeat IPC: 0.806619 cumulative IPC: 0.533573 (Simulation time: 1 hr 59 min 11 sec) 
Heartbeat CPU 3 instructions: 480000000 cycles: 961149738 heartbeat IPC: 0.278283 cumulative IPC: 0.275668 (Simulation time: 1 hr 59 min 55 sec) 
Heartbeat CPU 2 instructions: 1290000002 cycles: 962468818 heartbeat IPC: 1.09255 cumulative IPC: 1.09566 (Simulation time: 2 hr 0 min 4 sec) 
Heartbeat CPU 1 instructions: 630000002 cycles: 967367306 heartbeat IPC: 0.802324 cumulative IPC: 0.537762 (Simulation time: 2 hr 0 min 38 sec) 
Heartbeat CPU 2 instructions: 1300000000 cycles: 971751519 heartbeat IPC: 1.07727 cumulative IPC: 1.09545 (Simulation time: 2 hr 1 min 9 sec) 
Heartbeat CPU 0 instructions: 530000003 cycles: 977859794 heartbeat IPC: 0.227002 cumulative IPC: 0.233949 (Simulation time: 2 hr 1 min 53 sec) 
Heartbeat CPU 1 instructions: 640000000 cycles: 979813656 heartbeat IPC: 0.803448 cumulative IPC: 0.541834 (Simulation time: 2 hr 2 min 7 sec) 
Heartbeat CPU 2 instructions: 1310000002 cycles: 980626965 heartbeat IPC: 1.1267 cumulative IPC: 1.09579 (Simulation time: 2 hr 2 min 13 sec) 
Heartbeat CPU 2 instructions: 1320000000 cycles: 989497100 heartbeat IPC: 1.12738 cumulative IPC: 1.09613 (Simulation time: 2 hr 3 min 15 sec) 
Heartbeat CPU 1 instructions: 650000002 cycles: 992464990 heartbeat IPC: 0.790431 cumulative IPC: 0.545648 (Simulation time: 2 hr 3 min 36 sec) 
Heartbeat CPU 3 instructions: 490000001 cycles: 997901107 heartbeat IPC: 0.272099 cumulative IPC: 0.27551 (Simulation time: 2 hr 4 min 15 sec) 
Heartbeat CPU 2 instructions: 1330000000 cycles: 998047166 heartbeat IPC: 1.16958 cumulative IPC: 1.09689 (Simulation time: 2 hr 4 min 16 sec) 
Heartbeat CPU 1 instructions: 660000000 cycles: 1004861089 heartbeat IPC: 0.806705 cumulative IPC: 0.549514 (Simulation time: 2 hr 5 min 4 sec) 
Heartbeat CPU 2 instructions: 1340000000 cycles: 1006570024 heartbeat IPC: 1.17332 cumulative IPC: 1.09767 (Simulation time: 2 hr 5 min 17 sec) 
Heartbeat CPU 2 instructions: 1350000000 cycles: 1015111630 heartbeat IPC: 1.17074 cumulative IPC: 1.0984 (Simulation time: 2 hr 6 min 18 sec) 
Heartbeat CPU 1 instructions: 670000000 cycles: 1017261813 heartbeat IPC: 0.806405 cumulative IPC: 0.553264 (Simulation time: 2 hr 6 min 34 sec) 
Heartbeat CPU 0 instructions: 540000000 cycles: 1017614087 heartbeat IPC: 0.251545 cumulative IPC: 0.234773 (Simulation time: 2 hr 6 min 37 sec) 
Heartbeat CPU 2 instructions: 1360000000 cycles: 1024727378 heartbeat IPC: 1.03996 cumulative IPC: 1.09775 (Simulation time: 2 hr 7 min 29 sec) 
Heartbeat CPU 1 instructions: 680000000 cycles: 1030200352 heartbeat IPC: 0.772885 cumulative IPC: 0.556559 (Simulation time: 2 hr 8 min 7 sec) 
Heartbeat CPU 3 instructions: 500000000 cycles: 1034109863 heartbeat IPC: 0.276176 cumulative IPC: 0.275538 (Simulation time: 2 hr 8 min 33 sec) 
Heartbeat CPU 2 instructions: 1370000003 cycles: 1034828997 heartbeat IPC: 0.989941 cumulative IPC: 1.09649 (Simulation time: 2 hr 8 min 38 sec) 
Heartbeat CPU 1 instructions: 690000003 cycles: 1042839980 heartbeat IPC: 0.791163 cumulative IPC: 0.559947 (Simulation time: 2 hr 9 min 35 sec) 
Heartbeat CPU 2 instructions: 1380000000 cycles: 1043636837 heartbeat IPC: 1.13535 cumulative IPC: 1.09688 (Simulation time: 2 hr 9 min 40 sec) 
Heartbeat CPU 2 instructions: 1390000003 cycles: 1052440460 heartbeat IPC: 1.1359 cumulative IPC: 1.09727 (Simulation time: 2 hr 10 min 42 sec) 
Heartbeat CPU 1 instructions: 700000000 cycles: 1054731641 heartbeat IPC: 0.840925 cumulative IPC: 0.563714 (Simulation time: 2 hr 10 min 57 sec) 
Heartbeat CPU 0 instructions: 550000002 cycles: 1058098313 heartbeat IPC: 0.24701 cumulative IPC: 0.235329 (Simulation time: 2 hr 11 min 20 sec) 
Heartbeat CPU 2 instructions: 1400000000 cycles: 1061250917 heartbeat IPC: 1.13501 cumulative IPC: 1.09764 (Simulation time: 2 hr 11 min 42 sec) 
Heartbeat CPU 1 instructions: 710000003 cycles: 1066813780 heartbeat IPC: 0.827668 cumulative IPC: 0.567261 (Simulation time: 2 hr 12 min 21 sec) 
Heartbeat CPU 3 instructions: 510000000 cycles: 1069718667 heartbeat IPC: 0.280829 cumulative IPC: 0.275747 (Simulation time: 2 hr 12 min 43 sec) 
Heartbeat CPU 2 instructions: 1410000001 cycles: 1070061305 heartbeat IPC: 1.13502 cumulative IPC: 1.09801 (Simulation time: 2 hr 12 min 45 sec) 
Finished CPU 2 instructions: 1000000002 cycles: 910435733 cumulative IPC: 1.09838 (Simulation time: 2 hr 13 min 41 sec) 
Heartbeat CPU 2 instructions: 1420000000 cycles: 1078836458 heartbeat IPC: 1.13958 cumulative IPC: 1.09841 (Simulation time: 2 hr 13 min 47 sec) 
Heartbeat CPU 1 instructions: 720000000 cycles: 1078956140 heartbeat IPC: 0.823563 cumulative IPC: 0.570677 (Simulation time: 2 hr 13 min 47 sec) 
Heartbeat CPU 2 instructions: 1430000001 cycles: 1087607056 heartbeat IPC: 1.14017 cumulative IPC: 1.0988 (Simulation time: 2 hr 14 min 47 sec) 
Heartbeat CPU 1 instructions: 730000001 cycles: 1090952726 heartbeat IPC: 0.833571 cumulative IPC: 0.574093 (Simulation time: 2 hr 15 min 10 sec) 
Heartbeat CPU 0 instructions: 560000000 cycles: 1096222331 heartbeat IPC: 0.262302 cumulative IPC: 0.236437 (Simulation time: 2 hr 15 min 48 sec) 
Heartbeat CPU 2 instructions: 1440000000 cycles: 1096353517 heartbeat IPC: 1.14332 cumulative IPC: 1.09922 (Simulation time: 2 hr 15 min 48 sec) 
Heartbeat CPU 1 instructions: 740000000 cycles: 1102889405 heartbeat IPC: 0.837754 cumulative IPC: 0.577459 (Simulation time: 2 hr 16 min 35 sec) 
Heartbeat CPU 3 instructions: 520000000 cycles: 1104769585 heartbeat IPC: 0.285299 cumulative IPC: 0.276104 (Simulation time: 2 hr 16 min 48 sec) 
Heartbeat CPU 2 instructions: 1450000002 cycles: 1105561190 heartbeat IPC: 1.08605 cumulative IPC: 1.09909 (Simulation time: 2 hr 16 min 54 sec) 
Heartbeat CPU 2 instructions: 1460000000 cycles: 1114736628 heartbeat IPC: 1.08987 cumulative IPC: 1.09901 (Simulation time: 2 hr 17 min 58 sec) 
Heartbeat CPU 1 instructions: 750000003 cycles: 1114907308 heartbeat IPC: 0.832092 cumulative IPC: 0.580689 (Simulation time: 2 hr 17 min 59 sec) 
Heartbeat CPU 2 instructions: 1470000000 cycles: 1123907571 heartbeat IPC: 1.0904 cumulative IPC: 1.09892 (Simulation time: 2 hr 19 min 4 sec) 
Heartbeat CPU 1 instructions: 760000000 cycles: 1126864115 heartbeat IPC: 0.836343 cumulative IPC: 0.583877 (Simulation time: 2 hr 19 min 25 sec) 
Heartbeat CPU 2 instructions: 1480000000 cycles: 1133494170 heartbeat IPC: 1.04312 cumulative IPC: 1.09837 (Simulation time: 2 hr 20 min 11 sec) 
Heartbeat CPU 0 instructions: 570000002 cycles: 1137490195 heartbeat IPC: 0.242319 cumulative IPC: 0.236687 (Simulation time: 2 hr 20 min 38 sec) 
Heartbeat CPU 1 instructions: 770000000 cycles: 1138862316 heartbeat IPC: 0.833458 cumulative IPC: 0.58696 (Simulation time: 2 hr 20 min 48 sec) 
Heartbeat CPU 3 instructions: 530000000 cycles: 1139763018 heartbeat IPC: 0.285768 cumulative IPC: 0.276452 (Simulation time: 2 hr 20 min 54 sec) 
Heartbeat CPU 2 instructions: 1490000000 cycles: 1142446074 heartbeat IPC: 1.11708 cumulative IPC: 1.09854 (Simulation time: 2 hr 21 min 14 sec) 
Heartbeat CPU 1 instructions: 780000000 cycles: 1151456317 heartbeat IPC: 0.794029 cumulative IPC: 0.589611 (Simulation time: 2 hr 22 min 18 sec) 
Heartbeat CPU 2 instructions: 1500000000 cycles: 1151615462 heartbeat IPC: 1.09059 cumulative IPC: 1.09847 (Simulation time: 2 hr 22 min 19 sec) 
Heartbeat CPU 2 instructions: 1510000000 cycles: 1160647716 heartbeat IPC: 1.10714 cumulative IPC: 1.09855 (Simulation time: 2 hr 23 min 23 sec) 
Heartbeat CPU 1 instructions: 790000000 cycles: 1164159939 heartbeat IPC: 0.787177 cumulative IPC: 0.59213 (Simulation time: 2 hr 23 min 48 sec) 
Heartbeat CPU 2 instructions: 1520000000 cycles: 1169712443 heartbeat IPC: 1.10318 cumulative IPC: 1.09859 (Simulation time: 2 hr 24 min 27 sec) 
Heartbeat CPU 3 instructions: 540000000 cycles: 1175393083 heartbeat IPC: 0.280662 cumulative IPC: 0.276601 (Simulation time: 2 hr 25 min 6 sec) 
Heartbeat CPU 1 instructions: 800000000 cycles: 1176833565 heartbeat IPC: 0.78904 cumulative IPC: 0.594603 (Simulation time: 2 hr 25 min 16 sec) 
Heartbeat CPU 2 instructions: 1530000000 cycles: 1178681450 heartbeat IPC: 1.11495 cumulative IPC: 1.09873 (Simulation time: 2 hr 25 min 30 sec) 
Heartbeat CPU 0 instructions: 580000000 cycles: 1178929350 heartbeat IPC: 0.241318 cumulative IPC: 0.236877 (Simulation time: 2 hr 25 min 31 sec) 
Heartbeat CPU 2 instructions: 1540000000 cycles: 1187713795 heartbeat IPC: 1.10713 cumulative IPC: 1.09881 (Simulation time: 2 hr 26 min 33 sec) 
Heartbeat CPU 1 instructions: 810000000 cycles: 1189648518 heartbeat IPC: 0.780338 cumulative IPC: 0.596932 (Simulation time: 2 hr 26 min 46 sec) 
Heartbeat CPU 2 instructions: 1550000000 cycles: 1196709969 heartbeat IPC: 1.11158 cumulative IPC: 1.09892 (Simulation time: 2 hr 27 min 36 sec) 
Heartbeat CPU 1 instructions: 820000000 cycles: 1202303409 heartbeat IPC: 0.790208 cumulative IPC: 0.599297 (Simulation time: 2 hr 28 min 17 sec) 
Heartbeat CPU 2 instructions: 1560000000 cycles: 1205716388 heartbeat IPC: 1.11032 cumulative IPC: 1.09902 (Simulation time: 2 hr 28 min 41 sec) 
Heartbeat CPU 3 instructions: 550000000 cycles: 1211383129 heartbeat IPC: 0.277855 cumulative IPC: 0.276644 (Simulation time: 2 hr 29 min 21 sec) 
Heartbeat CPU 2 instructions: 1570000002 cycles: 1214729553 heartbeat IPC: 1.10949 cumulative IPC: 1.09911 (Simulation time: 2 hr 29 min 44 sec) 
Heartbeat CPU 1 instructions: 830000003 cycles: 1214943697 heartbeat IPC: 0.791121 cumulative IPC: 0.601612 (Simulation time: 2 hr 29 min 46 sec) 
Heartbeat CPU 0 instructions: 590000002 cycles: 1220263148 heartbeat IPC: 0.241933 cumulative IPC: 0.237075 (Simulation time: 2 hr 30 min 22 sec) 
Heartbeat CPU 2 instructions: 1580000000 cycles: 1223722288 heartbeat IPC: 1.11201 cumulative IPC: 1.09922 (Simulation time: 2 hr 30 min 47 sec) 
Heartbeat CPU 1 instructions: 840000000 cycles: 1227741267 heartbeat IPC: 0.781398 cumulative IPC: 0.603783 (Simulation time: 2 hr 31 min 15 sec) 
Heartbeat CPU 2 instructions: 1590000001 cycles: 1232758689 heartbeat IPC: 1.10664 cumulative IPC: 1.09928 (Simulation time: 2 hr 31 min 51 sec) 
Heartbeat CPU 1 instructions: 850000003 cycles: 1240445020 heartbeat IPC: 0.787169 cumulative IPC: 0.605955 (Simulation time: 2 hr 32 min 44 sec) 
Heartbeat CPU 2 instructions: 1600000000 cycles: 1241722996 heartbeat IPC: 1.11554 cumulative IPC: 1.09942 (Simulation time: 2 hr 32 min 52 sec) 
Heartbeat CPU 3 instructions: 560000000 cycles: 1246585089 heartbeat IPC: 0.284075 cumulative IPC: 0.276887 (Simulation time: 2 hr 33 min 27 sec) 
Heartbeat CPU 2 instructions: 1610000000 cycles: 1250755452 heartbeat IPC: 1.10712 cumulative IPC: 1.09948 (Simulation time: 2 hr 33 min 56 sec) 
Heartbeat CPU 1 instructions: 860000000 cycles: 1253298049 heartbeat IPC: 0.778026 cumulative IPC: 0.607992 (Simulation time: 2 hr 34 min 13 sec) 
Heartbeat CPU 2 instructions: 1620000000 cycles: 1259721258 heartbeat IPC: 1.11535 cumulative IPC: 1.09961 (Simulation time: 2 hr 34 min 59 sec) 
Heartbeat CPU 0 instructions: 600000000 cycles: 1261097958 heartbeat IPC: 0.244889 cumulative IPC: 0.237367 (Simulation time: 2 hr 35 min 8 sec) 
Heartbeat CPU 1 instructions: 870000000 cycles: 1266277558 heartbeat IPC: 0.770445 cumulative IPC: 0.609911 (Simulation time: 2 hr 35 min 44 sec) 
Heartbeat CPU 2 instructions: 1630000002 cycles: 1268778924 heartbeat IPC: 1.10404 cumulative IPC: 1.09965 (Simulation time: 2 hr 36 min 1 sec) 
Heartbeat CPU 2 instructions: 1640000000 cycles: 1277713708 heartbeat IPC: 1.11922 cumulative IPC: 1.0998 (Simulation time: 2 hr 37 min 3 sec) 
Heartbeat CPU 1 instructions: 880000000 cycles: 1279096505 heartbeat IPC: 0.780095 cumulative IPC: 0.611874 (Simulation time: 2 hr 37 min 13 sec) 
Heartbeat CPU 3 instructions: 570000001 cycles: 1282312231 heartbeat IPC: 0.279899 cumulative IPC: 0.276983 (Simulation time: 2 hr 37 min 35 sec) 
Heartbeat CPU 2 instructions: 1650000000 cycles: 1286778176 heartbeat IPC: 1.10321 cumulative IPC: 1.09983 (Simulation time: 2 hr 38 min 6 sec) 
Heartbeat CPU 1 instructions: 890000000 cycles: 1291924184 heartbeat IPC: 0.779564 cumulative IPC: 0.613788 (Simulation time: 2 hr 38 min 42 sec) 
Heartbeat CPU 2 instructions: 1660000000 cycles: 1295740604 heartbeat IPC: 1.11577 cumulative IPC: 1.09996 (Simulation time: 2 hr 39 min 9 sec) 
Heartbeat CPU 0 instructions: 610000002 cycles: 1303344157 heartbeat IPC: 0.236708 cumulative IPC: 0.237343 (Simulation time: 2 hr 40 min 2 sec) 
Heartbeat CPU 2 instructions: 1670000002 cycles: 1304753598 heartbeat IPC: 1.10951 cumulative IPC: 1.10003 (Simulation time: 2 hr 40 min 12 sec) 
Heartbeat CPU 1 instructions: 900000000 cycles: 1304762317 heartbeat IPC: 0.778929 cumulative IPC: 0.615653 (Simulation time: 2 hr 40 min 12 sec) 
Heartbeat CPU 2 instructions: 1680000000 cycles: 1313721459 heartbeat IPC: 1.11509 cumulative IPC: 1.10015 (Simulation time: 2 hr 41 min 12 sec) 
Heartbeat CPU 1 instructions: 910000002 cycles: 1317670113 heartbeat IPC: 0.774726 cumulative IPC: 0.617438 (Simulation time: 2 hr 41 min 38 sec) 
Heartbeat CPU 3 instructions: 580000000 cycles: 1323186526 heartbeat IPC: 0.244653 cumulative IPC: 0.27584 (Simulation time: 2 hr 42 min 17 sec) 
Heartbeat CPU 2 instructions: 1690000003 cycles: 1323581736 heartbeat IPC: 1.01417 cumulative IPC: 1.09942 (Simulation time: 2 hr 42 min 20 sec) 
Heartbeat CPU 1 instructions: 920000000 cycles: 1330400375 heartbeat IPC: 0.78553 cumulative IPC: 0.619279 (Simulation time: 2 hr 43 min 7 sec) 
Heartbeat CPU 2 instructions: 1700000000 cycles: 1332852890 heartbeat IPC: 1.07861 cumulative IPC: 1.09925 (Simulation time: 2 hr 43 min 24 sec) 
Heartbeat CPU 2 instructions: 1710000003 cycles: 1341789592 heartbeat IPC: 1.11898 cumulative IPC: 1.0994 (Simulation time: 2 hr 44 min 27 sec) 
Heartbeat CPU 1 instructions: 930000001 cycles: 1343322784 heartbeat IPC: 0.77385 cumulative IPC: 0.620978 (Simulation time: 2 hr 44 min 38 sec) 
Heartbeat CPU 0 instructions: 620000000 cycles: 1346939963 heartbeat IPC: 0.22938 cumulative IPC: 0.237048 (Simulation time: 2 hr 45 min 4 sec) 
Heartbeat CPU 2 instructions: 1720000000 cycles: 1350593042 heartbeat IPC: 1.13592 cumulative IPC: 1.09968 (Simulation time: 2 hr 45 min 29 sec) 
Heartbeat CPU 1 instructions: 940000000 cycles: 1356212479 heartbeat IPC: 0.775813 cumulative IPC: 0.622657 (Simulation time: 2 hr 46 min 8 sec) 
Heartbeat CPU 3 instructions: 590000000 cycles: 1358154994 heartbeat IPC: 0.285972 cumulative IPC: 0.276137 (Simulation time: 2 hr 46 min 22 sec) 
Heartbeat CPU 2 instructions: 1730000000 cycles: 1359358580 heartbeat IPC: 1.14083 cumulative IPC: 1.09998 (Simulation time: 2 hr 46 min 30 sec) 
Heartbeat CPU 2 instructions: 1740000000 cycles: 1368115082 heartbeat IPC: 1.14201 cumulative IPC: 1.10028 (Simulation time: 2 hr 47 min 33 sec) 
Heartbeat CPU 1 instructions: 950000001 cycles: 1369077910 heartbeat IPC: 0.777277 cumulative IPC: 0.624313 (Simulation time: 2 hr 47 min 40 sec) 
Heartbeat CPU 2 instructions: 1750000001 cycles: 1376930623 heartbeat IPC: 1.13436 cumulative IPC: 1.10053 (Simulation time: 2 hr 48 min 34 sec) 
Heartbeat CPU 1 instructions: 960000000 cycles: 1381979803 heartbeat IPC: 0.77508 cumulative IPC: 0.625915 (Simulation time: 2 hr 49 min 8 sec) 
Heartbeat CPU 2 instructions: 1760000000 cycles: 1385731519 heartbeat IPC: 1.13625 cumulative IPC: 1.10079 (Simulation time: 2 hr 49 min 35 sec) 
Heartbeat CPU 0 instructions: 630000000 cycles: 1386261952 heartbeat IPC: 0.254311 cumulative IPC: 0.237605 (Simulation time: 2 hr 49 min 39 sec) 
Heartbeat CPU 3 instructions: 600000000 cycles: 1393691241 heartbeat IPC: 0.281403 cumulative IPC: 0.27629 (Simulation time: 2 hr 50 min 30 sec) 
Heartbeat CPU 2 instructions: 1770000001 cycles: 1394551881 heartbeat IPC: 1.13374 cumulative IPC: 1.10103 (Simulation time: 2 hr 50 min 36 sec) 
Heartbeat CPU 1 instructions: 970000000 cycles: 1394661968 heartbeat IPC: 0.788509 cumulative IPC: 0.627596 (Simulation time: 2 hr 50 min 37 sec) 
Heartbeat CPU 2 instructions: 1780000000 cycles: 1403359306 heartbeat IPC: 1.13541 cumulative IPC: 1.10127 (Simulation time: 2 hr 51 min 38 sec) 
Heartbeat CPU 1 instructions: 980000000 cycles: 1407570767 heartbeat IPC: 0.774665 cumulative IPC: 0.629127 (Simulation time: 2 hr 52 min 8 sec) 
Heartbeat CPU 2 instructions: 1790000001 cycles: 1414414699 heartbeat IPC: 0.904536 cumulative IPC: 1.09953 (Simulation time: 2 hr 52 min 57 sec) 
Heartbeat CPU 1 instructions: 990000000 cycles: 1420857544 heartbeat IPC: 0.752628 cumulative IPC: 0.630436 (Simulation time: 2 hr 53 min 41 sec) 
Heartbeat CPU 2 instructions: 1800000000 cycles: 1423291137 heartbeat IPC: 1.12658 cumulative IPC: 1.09972 (Simulation time: 2 hr 53 min 59 sec) 
Heartbeat CPU 0 instructions: 640000000 cycles: 1429439946 heartbeat IPC: 0.231599 cumulative IPC: 0.2374 (Simulation time: 2 hr 54 min 42 sec) 
Heartbeat CPU 3 instructions: 610000000 cycles: 1429479002 heartbeat IPC: 0.279425 cumulative IPC: 0.276379 (Simulation time: 2 hr 54 min 43 sec) 
Heartbeat CPU 2 instructions: 1810000001 cycles: 1432527165 heartbeat IPC: 1.08272 cumulative IPC: 1.0996 (Simulation time: 2 hr 55 min 4 sec) 
Heartbeat CPU 1 instructions: 1000000000 cycles: 1433815016 heartbeat IPC: 0.771755 cumulative IPC: 0.631883 (Simulation time: 2 hr 55 min 12 sec) 
Heartbeat CPU 2 instructions: 1820000000 cycles: 1442020622 heartbeat IPC: 1.05336 cumulative IPC: 1.09925 (Simulation time: 2 hr 56 min 10 sec) 
Heartbeat CPU 1 instructions: 1010000002 cycles: 1446646847 heartbeat IPC: 0.779312 cumulative IPC: 0.633362 (Simulation time: 2 hr 56 min 42 sec) 
Heartbeat CPU 2 instructions: 1830000001 cycles: 1451206376 heartbeat IPC: 1.08864 cumulative IPC: 1.09918 (Simulation time: 2 hr 57 min 14 sec) 
Heartbeat CPU 1 instructions: 1020000000 cycles: 1459290067 heartbeat IPC: 0.790938 cumulative IPC: 0.634905 (Simulation time: 2 hr 58 min 11 sec) 
Heartbeat CPU 2 instructions: 1840000000 cycles: 1461021995 heartbeat IPC: 1.01878 cumulative IPC: 1.09857 (Simulation time: 2 hr 58 min 23 sec) 
Heartbeat CPU 3 instructions: 620000000 cycles: 1464245887 heartbeat IPC: 0.28763 cumulative IPC: 0.276681 (Simulation time: 2 hr 58 min 45 sec) 
Heartbeat CPU 2 instructions: 1850000000 cycles: 1470632252 heartbeat IPC: 1.04055 cumulative IPC: 1.09814 (Simulation time: 2 hr 59 min 26 sec) 
Heartbeat CPU 1 instructions: 1030000002 cycles: 1474013602 heartbeat IPC: 0.679185 cumulative IPC: 0.635404 (Simulation time: 2 hr 59 min 47 sec) 
Heartbeat CPU 0 instructions: 650000001 cycles: 1475242270 heartbeat IPC: 0.21833 cumulative IPC: 0.236732 (Simulation time: 2 hr 59 min 56 sec) 
Heartbeat CPU 2 instructions: 1860000000 cycles: 1480197203 heartbeat IPC: 1.04548 cumulative IPC: 1.09775 (Simulation time: 3 hr 0 min 30 sec) 
Heartbeat CPU 1 instructions: 1040000000 cycles: 1487450686 heartbeat IPC: 0.744209 cumulative IPC: 0.636512 (Simulation time: 3 hr 1 min 19 sec) 
Heartbeat CPU 2 instructions: 1870000003 cycles: 1489670802 heartbeat IPC: 1.05557 cumulative IPC: 1.09745 (Simulation time: 3 hr 1 min 34 sec) 
Heartbeat CPU 3 instructions: 630000002 cycles: 1498993770 heartbeat IPC: 0.287787 cumulative IPC: 0.27697 (Simulation time: 3 hr 2 min 42 sec) 
Heartbeat CPU 2 instructions: 1880000000 cycles: 1499246155 heartbeat IPC: 1.04435 cumulative IPC: 1.09707 (Simulation time: 3 hr 2 min 44 sec) 
Heartbeat CPU 1 instructions: 1050000000 cycles: 1500917226 heartbeat IPC: 0.742581 cumulative IPC: 0.637583 (Simulation time: 3 hr 2 min 55 sec) 
Heartbeat CPU 2 instructions: 1890000002 cycles: 1508851681 heartbeat IPC: 1.04107 cumulative IPC: 1.09667 (Simulation time: 3 hr 3 min 51 sec) 
Heartbeat CPU 0 instructions: 660000000 cycles: 1509854523 heartbeat IPC: 0.288915 cumulative IPC: 0.238077 (Simulation time: 3 hr 3 min 58 sec) 
Heartbeat CPU 1 instructions: 1060000000 cycles: 1514248232 heartbeat IPC: 0.750131 cumulative IPC: 0.638697 (Simulation time: 3 hr 4 min 28 sec) 
Heartbeat CPU 2 instructions: 1900000000 cycles: 1518334670 heartbeat IPC: 1.05452 cumulative IPC: 1.09637 (Simulation time: 3 hr 4 min 56 sec) 
Heartbeat CPU 1 instructions: 1070000001 cycles: 1527438648 heartbeat IPC: 0.758126 cumulative IPC: 0.639856 (Simulation time: 3 hr 6 min 1 sec) 
Heartbeat CPU 2 instructions: 1910000000 cycles: 1527724706 heartbeat IPC: 1.06496 cumulative IPC: 1.09616 (Simulation time: 3 hr 6 min 3 sec) 
Heartbeat CPU 3 instructions: 640000000 cycles: 1533253416 heartbeat IPC: 0.291889 cumulative IPC: 0.277345 (Simulation time: 3 hr 6 min 42 sec) 
Heartbeat CPU 2 instructions: 1920000000 cycles: 1537339025 heartbeat IPC: 1.04012 cumulative IPC: 1.09576 (Simulation time: 3 hr 7 min 10 sec) 
Heartbeat CPU 1 instructions: 1080000000 cycles: 1540706070 heartbeat IPC: 0.753726 cumulative IPC: 0.640956 (Simulation time: 3 hr 7 min 33 sec) 
Heartbeat CPU 2 instructions: 1930000003 cycles: 1546651899 heartbeat IPC: 1.07378 cumulative IPC: 1.09561 (Simulation time: 3 hr 8 min 13 sec) 
Heartbeat CPU 0 instructions: 670000003 cycles: 1551515683 heartbeat IPC: 0.240032 cumulative IPC: 0.238136 (Simulation time: 3 hr 8 min 46 sec) 
Heartbeat CPU 1 instructions: 1090000002 cycles: 1554092865 heartbeat IPC: 0.747005 cumulative IPC: 0.64198 (Simulation time: 3 hr 9 min 3 sec) 
Heartbeat CPU 2 instructions: 1940000000 cycles: 1555914043 heartbeat IPC: 1.07966 cumulative IPC: 1.09551 (Simulation time: 3 hr 9 min 16 sec) 
Heartbeat CPU 2 instructions: 1950000000 cycles: 1564748814 heartbeat IPC: 1.13189 cumulative IPC: 1.09574 (Simulation time: 3 hr 10 min 16 sec) 
Heartbeat CPU 3 instructions: 650000000 cycles: 1567307981 heartbeat IPC: 0.293646 cumulative IPC: 0.277741 (Simulation time: 3 hr 10 min 35 sec) 
Heartbeat CPU 1 instructions: 1100000000 cycles: 1567345274 heartbeat IPC: 0.75458 cumulative IPC: 0.643046 (Simulation time: 3 hr 10 min 36 sec) 
Heartbeat CPU 2 instructions: 1960000000 cycles: 1575277066 heartbeat IPC: 0.949825 cumulative IPC: 1.09465 (Simulation time: 3 hr 11 min 31 sec) 
Heartbeat CPU 1 instructions: 1110000001 cycles: 1580992802 heartbeat IPC: 0.732733 cumulative IPC: 0.643912 (Simulation time: 3 hr 12 min 9 sec) 
Heartbeat CPU 2 instructions: 1970000000 cycles: 1584649212 heartbeat IPC: 1.06699 cumulative IPC: 1.09446 (Simulation time: 3 hr 12 min 34 sec) 
Heartbeat CPU 2 instructions: 1980000000 cycles: 1593543689 heartbeat IPC: 1.12429 cumulative IPC: 1.09465 (Simulation time: 3 hr 13 min 35 sec) 
Heartbeat CPU 1 instructions: 1120000000 cycles: 1594375024 heartbeat IPC: 0.74726 cumulative IPC: 0.644882 (Simulation time: 3 hr 13 min 41 sec) 
Heartbeat CPU 0 instructions: 680000000 cycles: 1596465632 heartbeat IPC: 0.22247 cumulative IPC: 0.237643 (Simulation time: 3 hr 13 min 56 sec) 
Heartbeat CPU 2 instructions: 1990000000 cycles: 1602503246 heartbeat IPC: 1.11613 cumulative IPC: 1.09478 (Simulation time: 3 hr 14 min 36 sec) 
Heartbeat CPU 3 instructions: 660000000 cycles: 1603380833 heartbeat IPC: 0.277217 cumulative IPC: 0.277728 (Simulation time: 3 hr 14 min 43 sec) 
Heartbeat CPU 1 instructions: 1130000002 cycles: 1607751656 heartbeat IPC: 0.747572 cumulative IPC: 0.645836 (Simulation time: 3 hr 15 min 13 sec) 
*** Reached end of trace for Core: 2 Repeating trace: /home/ubuntu/PPF_Paper_Source_Code-master/traces/603.bwaves_s-1080B.champsimtrace.xz
Heartbeat CPU 2 instructions: 2000000000 cycles: 1612071335 heartbeat IPC: 1.04514 cumulative IPC: 1.09445 (Simulation time: 3 hr 15 min 42 sec) 
Heartbeat CPU 1 instructions: 1140000000 cycles: 1621118950 heartbeat IPC: 0.748094 cumulative IPC: 0.646776 (Simulation time: 3 hr 16 min 45 sec) 
Heartbeat CPU 2 instructions: 2010000003 cycles: 1621890457 heartbeat IPC: 1.01842 cumulative IPC: 1.09394 (Simulation time: 3 hr 16 min 50 sec) 
Heartbeat CPU 2 instructions: 2020000000 cycles: 1632226776 heartbeat IPC: 0.967462 cumulative IPC: 1.09305 (Simulation time: 3 hr 18 min 2 sec) 
Heartbeat CPU 1 instructions: 1150000003 cycles: 1634667353 heartbeat IPC: 0.738095 cumulative IPC: 0.64762 (Simulation time: 3 hr 18 min 20 sec) 
Heartbeat CPU 3 instructions: 670000000 cycles: 1638601187 heartbeat IPC: 0.283927 cumulative IPC: 0.277877 (Simulation time: 3 hr 18 min 47 sec) 
Heartbeat CPU 2 instructions: 2030000001 cycles: 1640753057 heartbeat IPC: 1.17284 cumulative IPC: 1.09351 (Simulation time: 3 hr 19 min 2 sec) 
Heartbeat CPU 0 instructions: 690000000 cycles: 1640834440 heartbeat IPC: 0.225384 cumulative IPC: 0.237274 (Simulation time: 3 hr 19 min 2 sec) 
Heartbeat CPU 1 instructions: 1160000000 cycles: 1648035833 heartbeat IPC: 0.748028 cumulative IPC: 0.648527 (Simulation time: 3 hr 19 min 54 sec) 
Heartbeat CPU 2 instructions: 2040000000 cycles: 1649293247 heartbeat IPC: 1.17093 cumulative IPC: 1.09396 (Simulation time: 3 hr 20 min 2 sec) 
Heartbeat CPU 2 instructions: 2050000000 cycles: 1657889508 heartbeat IPC: 1.1633 cumulative IPC: 1.09436 (Simulation time: 3 hr 21 min 0 sec) 
Heartbeat CPU 1 instructions: 1170000003 cycles: 1661473037 heartbeat IPC: 0.744203 cumulative IPC: 0.649387 (Simulation time: 3 hr 21 min 25 sec) 
Heartbeat CPU 2 instructions: 2060000000 cycles: 1666718651 heartbeat IPC: 1.13261 cumulative IPC: 1.09458 (Simulation time: 3 hr 22 min 1 sec) 
Heartbeat CPU 3 instructions: 680000000 cycles: 1673200770 heartbeat IPC: 0.289021 cumulative IPC: 0.278133 (Simulation time: 3 hr 22 min 45 sec) 
Heartbeat CPU 1 instructions: 1180000000 cycles: 1674932612 heartbeat IPC: 0.742965 cumulative IPC: 0.650223 (Simulation time: 3 hr 22 min 56 sec) 
Heartbeat CPU 2 instructions: 2070000000 cycles: 1675523398 heartbeat IPC: 1.13575 cumulative IPC: 1.09482 (Simulation time: 3 hr 23 min 0 sec) 
Heartbeat CPU 0 instructions: 700000000 cycles: 1682233922 heartbeat IPC: 0.241549 cumulative IPC: 0.237391 (Simulation time: 3 hr 23 min 46 sec) 
Heartbeat CPU 2 instructions: 2080000000 cycles: 1684350034 heartbeat IPC: 1.13293 cumulative IPC: 1.09504 (Simulation time: 3 hr 24 min 2 sec) 
Heartbeat CPU 1 instructions: 1190000003 cycles: 1688291560 heartbeat IPC: 0.748562 cumulative IPC: 0.651087 (Simulation time: 3 hr 24 min 29 sec) 
Heartbeat CPU 2 instructions: 2090000000 cycles: 1693191189 heartbeat IPC: 1.13107 cumulative IPC: 1.09525 (Simulation time: 3 hr 25 min 3 sec) 
Heartbeat CPU 1 instructions: 1200000000 cycles: 1701623960 heartbeat IPC: 0.750052 cumulative IPC: 0.651947 (Simulation time: 3 hr 26 min 1 sec) 
Finished CPU 1 instructions: 1000000000 cycles: 1533866635 cumulative IPC: 0.651947 (Simulation time: 3 hr 26 min 1 sec) 
Heartbeat CPU 2 instructions: 2100000000 cycles: 1702032902 heartbeat IPC: 1.131 cumulative IPC: 1.09546 (Simulation time: 3 hr 26 min 4 sec) 
Heartbeat CPU 3 instructions: 690000001 cycles: 1708105735 heartbeat IPC: 0.286492 cumulative IPC: 0.278322 (Simulation time: 3 hr 26 min 46 sec) 
Heartbeat CPU 2 instructions: 2110000001 cycles: 1710831038 heartbeat IPC: 1.1366 cumulative IPC: 1.09569 (Simulation time: 3 hr 27 min 4 sec) 
Heartbeat CPU 1 instructions: 1210000002 cycles: 1714896821 heartbeat IPC: 0.753417 cumulative IPC: 0.652818 (Simulation time: 3 hr 27 min 34 sec) 
Heartbeat CPU 0 instructions: 710000001 cycles: 1719571930 heartbeat IPC: 0.267824 cumulative IPC: 0.238123 (Simulation time: 3 hr 28 min 5 sec) 
Heartbeat CPU 2 instructions: 2120000000 cycles: 1719597543 heartbeat IPC: 1.14071 cumulative IPC: 1.09595 (Simulation time: 3 hr 28 min 6 sec) 
Heartbeat CPU 1 instructions: 1220000000 cycles: 1728308247 heartbeat IPC: 0.745633 cumulative IPC: 0.653615 (Simulation time: 3 hr 29 min 6 sec) 
Heartbeat CPU 2 instructions: 2130000000 cycles: 1728353262 heartbeat IPC: 1.14211 cumulative IPC: 1.09621 (Simulation time: 3 hr 29 min 6 sec) 
Heartbeat CPU 2 instructions: 2140000000 cycles: 1737110344 heartbeat IPC: 1.14193 cumulative IPC: 1.09646 (Simulation time: 3 hr 30 min 6 sec) 
Heartbeat CPU 1 instructions: 1230000003 cycles: 1741500609 heartbeat IPC: 0.758015 cumulative IPC: 0.65449 (Simulation time: 3 hr 30 min 36 sec) 
Heartbeat CPU 3 instructions: 700000000 cycles: 1741860903 heartbeat IPC: 0.296251 cumulative IPC: 0.278707 (Simulation time: 3 hr 30 min 39 sec) 
Heartbeat CPU 2 instructions: 2150000002 cycles: 1745928005 heartbeat IPC: 1.13409 cumulative IPC: 1.09667 (Simulation time: 3 hr 31 min 9 sec) 
Heartbeat CPU 2 instructions: 2160000000 cycles: 1754740528 heartbeat IPC: 1.13475 cumulative IPC: 1.09688 (Simulation time: 3 hr 32 min 11 sec) 
Heartbeat CPU 1 instructions: 1240000000 cycles: 1754749764 heartbeat IPC: 0.754765 cumulative IPC: 0.655328 (Simulation time: 3 hr 32 min 11 sec) 
Heartbeat CPU 0 instructions: 720000000 cycles: 1755456679 heartbeat IPC: 0.27867 cumulative IPC: 0.23904 (Simulation time: 3 hr 32 min 16 sec) 
Heartbeat CPU 2 instructions: 2170000002 cycles: 1763606441 heartbeat IPC: 1.12792 cumulative IPC: 1.09706 (Simulation time: 3 hr 33 min 11 sec) 
Heartbeat CPU 1 instructions: 1250000002 cycles: 1768007933 heartbeat IPC: 0.754252 cumulative IPC: 0.656147 (Simulation time: 3 hr 33 min 42 sec) 
Heartbeat CPU 2 instructions: 2180000000 cycles: 1772409777 heartbeat IPC: 1.13593 cumulative IPC: 1.09727 (Simulation time: 3 hr 34 min 12 sec) 
Heartbeat CPU 3 instructions: 710000000 cycles: 1774706893 heartbeat IPC: 0.304451 cumulative IPC: 0.279233 (Simulation time: 3 hr 34 min 28 sec) 
Heartbeat CPU 2 instructions: 2190000001 cycles: 1781255448 heartbeat IPC: 1.1305 cumulative IPC: 1.09745 (Simulation time: 3 hr 35 min 12 sec) 
Heartbeat CPU 1 instructions: 1260000000 cycles: 1781627170 heartbeat IPC: 0.734255 cumulative IPC: 0.656806 (Simulation time: 3 hr 35 min 14 sec) 
Heartbeat CPU 2 instructions: 2200000000 cycles: 1790113770 heartbeat IPC: 1.12888 cumulative IPC: 1.09762 (Simulation time: 3 hr 36 min 12 sec) 
Heartbeat CPU 1 instructions: 1270000000 cycles: 1795098104 heartbeat IPC: 0.742339 cumulative IPC: 0.657514 (Simulation time: 3 hr 36 min 47 sec) 
Heartbeat CPU 0 instructions: 730000002 cycles: 1797426595 heartbeat IPC: 0.238266 cumulative IPC: 0.23902 (Simulation time: 3 hr 37 min 3 sec) 
Heartbeat CPU 2 instructions: 2210000003 cycles: 1798936002 heartbeat IPC: 1.1335 cumulative IPC: 1.09782 (Simulation time: 3 hr 37 min 14 sec) 
Heartbeat CPU 3 instructions: 720000000 cycles: 1807781268 heartbeat IPC: 0.302349 cumulative IPC: 0.279699 (Simulation time: 3 hr 38 min 15 sec) 
Heartbeat CPU 2 instructions: 2220000000 cycles: 1807781735 heartbeat IPC: 1.13049 cumulative IPC: 1.09799 (Simulation time: 3 hr 38 min 15 sec) 
Heartbeat CPU 1 instructions: 1280000000 cycles: 1808380955 heartbeat IPC: 0.75285 cumulative IPC: 0.658286 (Simulation time: 3 hr 38 min 19 sec) 
Heartbeat CPU 2 instructions: 2230000001 cycles: 1816610574 heartbeat IPC: 1.13265 cumulative IPC: 1.09818 (Simulation time: 3 hr 39 min 15 sec) 
Heartbeat CPU 1 instructions: 1290000000 cycles: 1821645834 heartbeat IPC: 0.75387 cumulative IPC: 0.659053 (Simulation time: 3 hr 39 min 51 sec) 
Heartbeat CPU 2 instructions: 2240000000 cycles: 1825461573 heartbeat IPC: 1.12982 cumulative IPC: 1.09835 (Simulation time: 3 hr 40 min 18 sec) 
Heartbeat CPU 2 instructions: 2250000003 cycles: 1834309590 heartbeat IPC: 1.1302 cumulative IPC: 1.09852 (Simulation time: 3 hr 41 min 4 sec) 
Heartbeat CPU 0 instructions: 740000000 cycles: 1836318301 heartbeat IPC: 0.257124 cumulative IPC: 0.239442 (Simulation time: 3 hr 41 min 12 sec) 
Heartbeat CPU 3 instructions: 730000000 cycles: 1840803273 heartbeat IPC: 0.302828 cumulative IPC: 0.280156 (Simulation time: 3 hr 41 min 33 sec) 
Heartbeat CPU 2 instructions: 2260000000 cycles: 1843140451 heartbeat IPC: 1.13239 cumulative IPC: 1.0987 (Simulation time: 3 hr 41 min 43 sec) 
Heartbeat CPU 2 instructions: 2270000001 cycles: 1851990548 heartbeat IPC: 1.12993 cumulative IPC: 1.09886 (Simulation time: 3 hr 42 min 23 sec) 
Heartbeat CPU 2 instructions: 2280000000 cycles: 1860833719 heartbeat IPC: 1.13082 cumulative IPC: 1.09903 (Simulation time: 3 hr 43 min 2 sec) 
Heartbeat CPU 2 instructions: 2290000001 cycles: 1869661581 heartbeat IPC: 1.13278 cumulative IPC: 1.0992 (Simulation time: 3 hr 43 min 42 sec) 
Heartbeat CPU 3 instructions: 740000000 cycles: 1873732294 heartbeat IPC: 0.303683 cumulative IPC: 0.28061 (Simulation time: 3 hr 44 min 0 sec) 
Heartbeat CPU 0 instructions: 750000001 cycles: 1877807818 heartbeat IPC: 0.241025 cumulative IPC: 0.23948 (Simulation time: 3 hr 44 min 18 sec) 
Heartbeat CPU 2 instructions: 2300000000 cycles: 1878507510 heartbeat IPC: 1.13046 cumulative IPC: 1.09936 (Simulation time: 3 hr 44 min 21 sec) 
Heartbeat CPU 2 instructions: 2310000001 cycles: 1887327601 heartbeat IPC: 1.13378 cumulative IPC: 1.09954 (Simulation time: 3 hr 45 min 2 sec) 
Heartbeat CPU 2 instructions: 2320000000 cycles: 1896176016 heartbeat IPC: 1.13015 cumulative IPC: 1.0997 (Simulation time: 3 hr 45 min 42 sec) 
Heartbeat CPU 1 instructions: 1300000000 cycles: 1896830608 heartbeat IPC: 0.133006 cumulative IPC: 0.636179 (Simulation time: 3 hr 45 min 45 sec) 
Heartbeat CPU 2 instructions: 2330000003 cycles: 1905001654 heartbeat IPC: 1.13306 cumulative IPC: 1.09987 (Simulation time: 3 hr 46 min 39 sec) 
Heartbeat CPU 1 instructions: 1310000000 cycles: 1906559888 heartbeat IPC: 1.02783 cumulative IPC: 0.63837 (Simulation time: 3 hr 46 min 50 sec) 
Heartbeat CPU 3 instructions: 750000001 cycles: 1907537455 heartbeat IPC: 0.295813 cumulative IPC: 0.280905 (Simulation time: 3 hr 46 min 57 sec) 
Heartbeat CPU 2 instructions: 2340000000 cycles: 1913808522 heartbeat IPC: 1.13548 cumulative IPC: 1.10005 (Simulation time: 3 hr 47 min 42 sec) 
Heartbeat CPU 1 instructions: 1320000000 cycles: 1914936677 heartbeat IPC: 1.19377 cumulative IPC: 0.641033 (Simulation time: 3 hr 47 min 50 sec) 
Heartbeat CPU 0 instructions: 760000000 cycles: 1920878386 heartbeat IPC: 0.232177 cumulative IPC: 0.239301 (Simulation time: 3 hr 48 min 33 sec) 
Heartbeat CPU 2 instructions: 2350000003 cycles: 1922573899 heartbeat IPC: 1.14085 cumulative IPC: 1.10025 (Simulation time: 3 hr 48 min 46 sec) 
Heartbeat CPU 1 instructions: 1330000001 cycles: 1923220375 heartbeat IPC: 1.20719 cumulative IPC: 0.643705 (Simulation time: 3 hr 48 min 50 sec) 
Heartbeat CPU 2 instructions: 2360000000 cycles: 1931318647 heartbeat IPC: 1.14354 cumulative IPC: 1.10046 (Simulation time: 3 hr 49 min 48 sec) 
Heartbeat CPU 1 instructions: 1340000000 cycles: 1931464942 heartbeat IPC: 1.21292 cumulative IPC: 0.646366 (Simulation time: 3 hr 49 min 49 sec) 
Heartbeat CPU 1 instructions: 1350000003 cycles: 1939720162 heartbeat IPC: 1.21136 cumulative IPC: 0.648998 (Simulation time: 3 hr 50 min 48 sec) 
Heartbeat CPU 2 instructions: 2370000001 cycles: 1940081436 heartbeat IPC: 1.14119 cumulative IPC: 1.10067 (Simulation time: 3 hr 50 min 51 sec) 
Heartbeat CPU 3 instructions: 760000000 cycles: 1943612283 heartbeat IPC: 0.277202 cumulative IPC: 0.28083 (Simulation time: 3 hr 51 min 17 sec) 
Heartbeat CPU 1 instructions: 1360000000 cycles: 1948007838 heartbeat IPC: 1.20661 cumulative IPC: 0.651594 (Simulation time: 3 hr 51 min 48 sec) 
Heartbeat CPU 2 instructions: 2380000000 cycles: 1948890664 heartbeat IPC: 1.13517 cumulative IPC: 1.10084 (Simulation time: 3 hr 51 min 54 sec) 
Heartbeat CPU 1 instructions: 1370000003 cycles: 1956323198 heartbeat IPC: 1.20259 cumulative IPC: 0.654155 (Simulation time: 3 hr 52 min 48 sec) 
Heartbeat CPU 2 instructions: 2390000000 cycles: 1957760130 heartbeat IPC: 1.12746 cumulative IPC: 1.10097 (Simulation time: 3 hr 52 min 58 sec) 
Heartbeat CPU 1 instructions: 1380000000 cycles: 1964588989 heartbeat IPC: 1.20981 cumulative IPC: 0.656712 (Simulation time: 3 hr 53 min 48 sec) 
Heartbeat CPU 2 instructions: 2400000000 cycles: 1966569911 heartbeat IPC: 1.1351 cumulative IPC: 1.10114 (Simulation time: 3 hr 54 min 2 sec) 
Heartbeat CPU 0 instructions: 770000002 cycles: 1966574790 heartbeat IPC: 0.218836 cumulative IPC: 0.238781 (Simulation time: 3 hr 54 min 2 sec) 
Heartbeat CPU 1 instructions: 1390000001 cycles: 1973048829 heartbeat IPC: 1.18206 cumulative IPC: 0.659173 (Simulation time: 3 hr 54 min 48 sec) 
Heartbeat CPU 2 instructions: 2410000000 cycles: 1975397794 heartbeat IPC: 1.13277 cumulative IPC: 1.10129 (Simulation time: 3 hr 55 min 5 sec) 
Heartbeat CPU 3 instructions: 770000003 cycles: 1979440056 heartbeat IPC: 0.279113 cumulative IPC: 0.280796 (Simulation time: 3 hr 55 min 35 sec) 
Heartbeat CPU 1 instructions: 1400000000 cycles: 1981400469 heartbeat IPC: 1.19737 cumulative IPC: 0.661652 (Simulation time: 3 hr 55 min 49 sec) 
Heartbeat CPU 2 instructions: 2420000000 cycles: 1984213720 heartbeat IPC: 1.13431 cumulative IPC: 1.10145 (Simulation time: 3 hr 56 min 9 sec) 
Heartbeat CPU 1 instructions: 1410000000 cycles: 1989626486 heartbeat IPC: 1.21566 cumulative IPC: 0.664153 (Simulation time: 3 hr 56 min 48 sec) 
Heartbeat CPU 2 instructions: 2430000002 cycles: 1993048600 heartbeat IPC: 1.13188 cumulative IPC: 1.1016 (Simulation time: 3 hr 57 min 12 sec) 
Heartbeat CPU 1 instructions: 1420000000 cycles: 1998043949 heartbeat IPC: 1.18801 cumulative IPC: 0.666562 (Simulation time: 3 hr 57 min 50 sec) 
Heartbeat CPU 2 instructions: 2440000000 cycles: 2001600204 heartbeat IPC: 1.16937 cumulative IPC: 1.10191 (Simulation time: 3 hr 58 min 16 sec) 
Heartbeat CPU 1 instructions: 1430000000 cycles: 2006355075 heartbeat IPC: 1.20321 cumulative IPC: 0.668988 (Simulation time: 3 hr 58 min 51 sec) 
[...]
Heartbeat CPU 2 instructions: 4930000003 cycles: 4268289763 heartbeat IPC: 1.05596 cumulative IPC: 1.10004 (Simulation time: 8 hr 8 min 56 sec) 
Heartbeat CPU 1 instructions: 3130000002 cycles: 4269705182 heartbeat IPC: 0.738183 cumulative IPC: 0.714295 (Simulation time: 8 hr 9 min 5 sec) 
Heartbeat CPU 3 instructions: 1390000000 cycles: 4270022226 heartbeat IPC: 0.273299 cumulative IPC: 0.275144 (Simulation time: 8 hr 9 min 8 sec) 
Heartbeat CPU 2 instructions: 4940000000 cycles: 4277314467 heartbeat IPC: 1.10807 cumulative IPC: 1.10005 (Simulation time: 8 hr 9 min 57 sec) 
Heartbeat CPU 0 instructions: 1310000001 cycles: 4282561314 heartbeat IPC: 0.215724 cumulative IPC: 0.235618 (Simulation time: 8 hr 10 min 31 sec) 
Heartbeat CPU 1 instructions: 3140000000 cycles: 4283240745 heartbeat IPC: 0.738794 cumulative IPC: 0.714375 (Simulation time: 8 hr 10 min 36 sec) 
Heartbeat CPU 2 instructions: 4950000002 cycles: 4286414438 heartbeat IPC: 1.0989 cumulative IPC: 1.10005 (Simulation time: 8 hr 10 min 57 sec) 
Heartbeat CPU 2 instructions: 4960000000 cycles: 4295465630 heartbeat IPC: 1.10483 cumulative IPC: 1.10006 (Simulation time: 8 hr 11 min 59 sec) 
Heartbeat CPU 1 instructions: 3150000003 cycles: 4296570788 heartbeat IPC: 0.750185 cumulative IPC: 0.714491 (Simulation time: 8 hr 12 min 7 sec) 
Heartbeat CPU 2 instructions: 4970000001 cycles: 4304262813 heartbeat IPC: 1.13673 cumulative IPC: 1.10014 (Simulation time: 8 hr 12 min 59 sec) 
Heartbeat CPU 3 instructions: 1400000000 cycles: 4306453568 heartbeat IPC: 0.274489 cumulative IPC: 0.275138 (Simulation time: 8 hr 13 min 13 sec) 
Heartbeat CPU 1 instructions: 3160000000 cycles: 4309846906 heartbeat IPC: 0.753232 cumulative IPC: 0.714615 (Simulation time: 8 hr 13 min 36 sec) 
Heartbeat CPU 2 instructions: 4980000000 cycles: 4313034301 heartbeat IPC: 1.14006 cumulative IPC: 1.10022 (Simulation time: 8 hr 13 min 57 sec) 
Heartbeat CPU 2 instructions: 4990000003 cycles: 4321791958 heartbeat IPC: 1.14186 cumulative IPC: 1.10031 (Simulation time: 8 hr 14 min 57 sec) 
Heartbeat CPU 1 instructions: 3170000003 cycles: 4323129611 heartbeat IPC: 0.752859 cumulative IPC: 0.714737 (Simulation time: 8 hr 15 min 6 sec) 
Heartbeat CPU 0 instructions: 1320000000 cycles: 4328129599 heartbeat IPC: 0.219451 cumulative IPC: 0.235441 (Simulation time: 8 hr 15 min 40 sec) 
Heartbeat CPU 2 instructions: 5000000000 cycles: 4330548816 heartbeat IPC: 1.14196 cumulative IPC: 1.1004 (Simulation time: 8 hr 15 min 57 sec) 
Heartbeat CPU 1 instructions: 3180000000 cycles: 4336745921 heartbeat IPC: 0.734413 cumulative IPC: 0.714802 (Simulation time: 8 hr 16 min 39 sec) 
Heartbeat CPU 2 instructions: 5010000001 cycles: 4339959250 heartbeat IPC: 1.06265 cumulative IPC: 1.10031 (Simulation time: 8 hr 17 min 0 sec) 
Heartbeat CPU 3 instructions: 1410000000 cycles: 4343608149 heartbeat IPC: 0.269146 cumulative IPC: 0.275085 (Simulation time: 8 hr 17 min 27 sec) 
Heartbeat CPU 2 instructions: 5020000000 cycles: 4350318425 heartbeat IPC: 0.965328 cumulative IPC: 1.09998 (Simulation time: 8 hr 18 min 12 sec) 
Heartbeat CPU 1 instructions: 3190000003 cycles: 4350599518 heartbeat IPC: 0.721834 cumulative IPC: 0.714825 (Simulation time: 8 hr 18 min 14 sec) 
Heartbeat CPU 2 instructions: 5030000001 cycles: 4358864369 heartbeat IPC: 1.17015 cumulative IPC: 1.10012 (Simulation time: 8 hr 19 min 12 sec) 
Heartbeat CPU 1 instructions: 3200000000 cycles: 4364093287 heartbeat IPC: 0.741083 cumulative IPC: 0.714909 (Simulation time: 8 hr 19 min 47 sec) 
Heartbeat CPU 2 instructions: 5040000000 cycles: 4367390158 heartbeat IPC: 1.17291 cumulative IPC: 1.10027 (Simulation time: 8 hr 20 min 11 sec) 
Heartbeat CPU 0 instructions: 1330000001 cycles: 4371184634 heartbeat IPC: 0.232261 cumulative IPC: 0.235409 (Simulation time: 8 hr 20 min 36 sec) 
Heartbeat CPU 2 instructions: 5050000000 cycles: 4375927186 heartbeat IPC: 1.17137 cumulative IPC: 1.10042 (Simulation time: 8 hr 21 min 9 sec) 
Heartbeat CPU 1 instructions: 3210000002 cycles: 4377304747 heartbeat IPC: 0.756919 cumulative IPC: 0.715041 (Simulation time: 8 hr 21 min 18 sec) 
Heartbeat CPU 3 instructions: 1420000000 cycles: 4380441306 heartbeat IPC: 0.271495 cumulative IPC: 0.275053 (Simulation time: 8 hr 21 min 38 sec) 
Heartbeat CPU 2 instructions: 5060000000 cycles: 4384756576 heartbeat IPC: 1.13258 cumulative IPC: 1.10048 (Simulation time: 8 hr 22 min 7 sec) 
Heartbeat CPU 1 instructions: 3220000000 cycles: 4390646484 heartbeat IPC: 0.749527 cumulative IPC: 0.71515 (Simulation time: 8 hr 22 min 46 sec) 
Heartbeat CPU 2 instructions: 5070000002 cycles: 4393801873 heartbeat IPC: 1.10555 cumulative IPC: 1.10049 (Simulation time: 8 hr 23 min 7 sec) 
Heartbeat CPU 2 instructions: 5080000000 cycles: 4403110466 heartbeat IPC: 1.07428 cumulative IPC: 1.10044 (Simulation time: 8 hr 24 min 9 sec) 
Heartbeat CPU 1 instructions: 3230000003 cycles: 4404215303 heartbeat IPC: 0.736984 cumulative IPC: 0.71522 (Simulation time: 8 hr 24 min 16 sec) 
Heartbeat CPU 2 instructions: 5090000001 cycles: 4412578299 heartbeat IPC: 1.05621 cumulative IPC: 1.10034 (Simulation time: 8 hr 25 min 14 sec) 
Heartbeat CPU 3 instructions: 1430000001 cycles: 4416849010 heartbeat IPC: 0.274667 cumulative IPC: 0.27505 (Simulation time: 8 hr 25 min 42 sec) 
Heartbeat CPU 1 instructions: 3240000000 cycles: 4417566363 heartbeat IPC: 0.749004 cumulative IPC: 0.715326 (Simulation time: 8 hr 25 min 47 sec) 
Heartbeat CPU 0 instructions: 1340000000 cycles: 4418289385 heartbeat IPC: 0.212293 cumulative IPC: 0.235152 (Simulation time: 8 hr 25 min 52 sec) 
Finished CPU 0 instructions: 1000000001 cycles: 4252697287 cumulative IPC: 0.235145 (Simulation time: 8 hr 26 min 6 sec) 

CPU 0 Branch Prediction Accuracy: 99.2859% MPKI: 1.4783

CPU 1 Branch Prediction Accuracy: 99.6802% MPKI: 0.0331739

CPU 2 Branch Prediction Accuracy: 92.4143% MPKI: 10.2593

CPU 3 Branch Prediction Accuracy: 92.7681% MPKI: 15.0534

ChampSim completed all CPUs

Total Simulation Statistics (not including warmup)

CPU 0 cumulative IPC: 0.235145 instructions: 1000000001 cycles: 4252697287
L1D TOTAL     ACCESS:  233258413  HIT:  205053687  MISS:   28204726
L1D LOAD      ACCESS:  187371483  HIT:  159746847  MISS:   27624636
L1D RFO       ACCESS:   45886930  HIT:   45306840  MISS:     580090
L1D PREFETCH  ACCESS:          0  HIT:          0  MISS:          0
L1D WRITEBACK ACCESS:          0  HIT:          0  MISS:          0
L1I TOTAL     ACCESS:  320114077  HIT:  316719754  MISS:    3394323
L1I LOAD      ACCESS:  320114077  HIT:  316719754  MISS:    3394323
L1I RFO       ACCESS:          0  HIT:          0  MISS:          0
L1I PREFETCH  ACCESS:          0  HIT:          0  MISS:          0
L1I WRITEBACK ACCESS:          0  HIT:          0  MISS:          0
L2C TOTAL     ACCESS:   56458291  HIT:    9762778  MISS:   46695513
L2C LOAD      ACCESS:   31018316  HIT:    7359715  MISS:   23658601
L2C RFO       ACCESS:     580018  HIT:     275569  MISS:     304449
L2C PREFETCH  ACCESS:   23657014  HIT:     946881  MISS:   22710133
L2C WRITEBACK ACCESS:    1202943  HIT:    1180613  MISS:      22330

L2C Best-offset prefetcher final stats
LLC TOTAL     ACCESS:   47327354  HIT:    6407864  MISS:   40919490
LLC LOAD      ACCESS:   23570009  HIT:    2908211  MISS:   20661798
LLC RFO       ACCESS:     304432  HIT:      79148  MISS:     225284
LLC PREFETCH  ACCESS:   22891726  HIT:    2862403  MISS:   20029323
LLC WRITEBACK ACCESS:     561187  HIT:     558102  MISS:       3085

CPU 1 cumulative IPC: 0.715319 instructions: 3042033798 cycles: 4252697287
L1D TOTAL     ACCESS: 1516714731  HIT: 1455776957  MISS:   60937774
L1D LOAD      ACCESS: 1332124924  HIT: 1271187815  MISS:   60937109
L1D RFO       ACCESS:  184589807  HIT:  184589142  MISS:        665
L1D PREFETCH  ACCESS:          0  HIT:          0  MISS:          0
L1D WRITEBACK ACCESS:          0  HIT:          0  MISS:          0
L1I TOTAL     ACCESS:  822846375  HIT:  822845647  MISS:        728
L1I LOAD      ACCESS:  822846375  HIT:  822845647  MISS:        728
L1I RFO       ACCESS:          0  HIT:          0  MISS:          0
L1I PREFETCH  ACCESS:          0  HIT:          0  MISS:          0
L1I WRITEBACK ACCESS:          0  HIT:          0  MISS:          0
L2C TOTAL     ACCESS:  135933259  HIT:   72794018  MISS:   63139241
L2C LOAD      ACCESS:   60937829  HIT:   48069195  MISS:   12868634
L2C RFO       ACCESS:        647  HIT:        595  MISS:         52
L2C PREFETCH  ACCESS:   50497306  HIT:     229273  MISS:   50268033
L2C WRITEBACK ACCESS:   24497477  HIT:   24494955  MISS:       2522

L2C Best-offset prefetcher final stats
LLC TOTAL     ACCESS:   87884168  HIT:   31523818  MISS:   56360350
LLC LOAD      ACCESS:   12326327  HIT:    2447924  MISS:    9878403
LLC RFO       ACCESS:         52  HIT:         24  MISS:         28
LLC PREFETCH  ACCESS:   51083111  HIT:    4601706  MISS:   46481405
LLC WRITEBACK ACCESS:   24474678  HIT:   24474164  MISS:        514

CPU 2 cumulative IPC: 1.1003 instructions: 4679224874 cycles: 4252697288
L1D TOTAL     ACCESS:  836981669  HIT:  835308985  MISS:    1672684
L1D LOAD      ACCESS:  647636949  HIT:  647455718  MISS:     181231
L1D RFO       ACCESS:  189344720  HIT:  187853267  MISS:    1491453
L1D PREFETCH  ACCESS:          0  HIT:          0  MISS:          0
L1D WRITEBACK ACCESS:          0  HIT:          0  MISS:          0
L1I TOTAL     ACCESS: 1158326262  HIT: 1158326262  MISS:          0
L1I LOAD      ACCESS: 1158326262  HIT: 1158326262  MISS:          0
L1I RFO       ACCESS:          0  HIT:          0  MISS:          0
L1I PREFETCH  ACCESS:          0  HIT:          0  MISS:          0
L1I WRITEBACK ACCESS:          0  HIT:          0  MISS:          0
L2C TOTAL     ACCESS:    3306798  HIT:    1719048  MISS:    1587750
L2C LOAD      ACCESS:     181231  HIT:     178267  MISS:       2964
L2C RFO       ACCESS:    1491453  HIT:      48854  MISS:    1442599
L2C PREFETCH  ACCESS:     142237  HIT:        130  MISS:     142107
L2C WRITEBACK ACCESS:    1491877  HIT:    1491797  MISS:         80

L2C Best-offset prefetcher final stats
LLC TOTAL     ACCESS:    3030415  HIT:     961679  MISS:    2068736
LLC LOAD      ACCESS:       2738  HIT:          2  MISS:       2736
LLC RFO       ACCESS:    1442599  HIT:         48  MISS:    1442551
LLC PREFETCH  ACCESS:     142333  HIT:          0  MISS:     142333
LLC WRITEBACK ACCESS:    1442745  HIT:     961629  MISS:     481116

CPU 3 cumulative IPC: 0.275047 instructions: 1169690879 cycles: 4252697288
L1D TOTAL     ACCESS:  401648264  HIT:  317293315  MISS:   84354949
L1D LOAD      ACCESS:  304753150  HIT:  224075974  MISS:   80677176
L1D RFO       ACCESS:   96895114  HIT:   93217341  MISS:    3677773
L1D PREFETCH  ACCESS:          0  HIT:          0  MISS:          0
L1D WRITEBACK ACCESS:          0  HIT:          0  MISS:          0
L1I TOTAL     ACCESS:  273546034  HIT:  273546034  MISS:          0
L1I LOAD      ACCESS:  273546034  HIT:  273546034  MISS:          0
L1I RFO       ACCESS:          0  HIT:          0  MISS:          0
L1I PREFETCH  ACCESS:          0  HIT:          0  MISS:          0
L1I WRITEBACK ACCESS:          0  HIT:          0  MISS:          0
L2C TOTAL     ACCESS:  141260439  HIT:   36686815  MISS:  104573624
L2C LOAD      ACCESS:   80676812  HIT:   28237725  MISS:   52439087
L2C RFO       ACCESS:    3677721  HIT:     436837  MISS:    3240884
L2C PREFETCH  ACCESS:   50904407  HIT:    2023541  MISS:   48880866
L2C WRITEBACK ACCESS:    6001499  HIT:    5988712  MISS:      12787

L2C Best-offset prefetcher final stats
LLC TOTAL     ACCESS:  114796775  HIT:   72685158  MISS:   42111617
LLC LOAD      ACCESS:   51518832  HIT:   41094271  MISS:   10424561
LLC RFO       ACCESS:    3240874  HIT:    3216205  MISS:      24669
LLC PREFETCH  ACCESS:   54832982  HIT:   23171813  MISS:   31661169
LLC WRITEBACK ACCESS:    5204087  HIT:    5202869  MISS:       1218

Region of Interest Statistics

CPU 0 cumulative IPC: 0.235145 instructions: 1000000001 cycles: 4252697287
L1D TOTAL     ACCESS:  233258413  HIT:  205053687  MISS:   28204726
L1D LOAD      ACCESS:  187371483  HIT:  159746847  MISS:   27624636
L1D RFO       ACCESS:   45886930  HIT:   45306840  MISS:     580090
L1D PREFETCH  ACCESS:          0  HIT:          0  MISS:          0
L1D WRITEBACK ACCESS:          0  HIT:          0  MISS:          0
L1D PREFETCH  REQUESTED:          0  ISSUED:          0  USEFUL:          0  USELESS:          0
L1I TOTAL     ACCESS:  320114077  HIT:  316719754  MISS:    3394323
L1I LOAD      ACCESS:  320114077  HIT:  316719754  MISS:    3394323
L1I RFO       ACCESS:          0  HIT:          0  MISS:          0
L1I PREFETCH  ACCESS:          0  HIT:          0  MISS:          0
L1I WRITEBACK ACCESS:          0  HIT:          0  MISS:          0
L1I PREFETCH  REQUESTED:          0  ISSUED:          0  USEFUL:          0  USELESS:          0
L2C TOTAL     ACCESS:   56458291  HIT:    9762778  MISS:   46695513
L2C LOAD      ACCESS:   31018316  HIT:    7359715  MISS:   23658601
L2C RFO       ACCESS:     580018  HIT:     275569  MISS:     304449
L2C PREFETCH  ACCESS:   23657014  HIT:     946881  MISS:   22710133
L2C WRITEBACK ACCESS:    1202943  HIT:    1180613  MISS:      22330
L2C PREFETCH  REQUESTED:   30475919  ISSUED:   30475914  USEFUL:    4925256  USELESS:   23012437
LLC TOTAL     ACCESS:   47327354  HIT:    6407864  MISS:   40919490
LLC LOAD      ACCESS:   23570009  HIT:    2908211  MISS:   20661798
LLC RFO       ACCESS:     304432  HIT:      79148  MISS:     225284
LLC PREFETCH  ACCESS:   22891726  HIT:    2862403  MISS:   20029323
LLC WRITEBACK ACCESS:     561187  HIT:     558102  MISS:       3085
LLC PREFETCH  REQUESTED:          0  ISSUED:          0  USEFUL:    3949137  USELESS:  109524894
Major fault: 0 Minor fault: 13556

CPU 1 cumulative IPC: 0.651947 instructions: 1000000000 cycles: 1533866635
L1D TOTAL     ACCESS:  562530692  HIT:  541802597  MISS:   20728095
L1D LOAD      ACCESS:  498186324  HIT:  477458556  MISS:   20727768
L1D RFO       ACCESS:   64344368  HIT:   64344041  MISS:        327
L1D PREFETCH  ACCESS:          0  HIT:          0  MISS:          0
L1D WRITEBACK ACCESS:          0  HIT:          0  MISS:          0
L1D PREFETCH  REQUESTED:          0  ISSUED:          0  USEFUL:          0  USELESS:          0
L1I TOTAL     ACCESS:  287090515  HIT:  287090181  MISS:        334
L1I LOAD      ACCESS:  287090515  HIT:  287090181  MISS:        334
L1I RFO       ACCESS:          0  HIT:          0  MISS:          0
L1I PREFETCH  ACCESS:          0  HIT:          0  MISS:          0
L1I WRITEBACK ACCESS:          0  HIT:          0  MISS:          0
L1I PREFETCH  REQUESTED:          0  ISSUED:          0  USEFUL:          0  USELESS:          0
L2C TOTAL     ACCESS:   46283300  HIT:   25086580  MISS:   21196720
L2C LOAD      ACCESS:   20728098  HIT:   16220158  MISS:    4507940
L2C RFO       ACCESS:        318  HIT:        297  MISS:         21
L2C PREFETCH  ACCESS:   16757429  HIT:      68759  MISS:   16688670
L2C WRITEBACK ACCESS:    8797455  HIT:    8797366  MISS:         89
L2C PREFETCH  REQUESTED:   55207355  ISSUED:   55207355  USEFUL:   43256671  USELESS:   10796356
LLC TOTAL     ACCESS:   30064425  HIT:   11625572  MISS:   18438853
LLC LOAD      ACCESS:    4378044  HIT:     914347  MISS:    3463697
LLC RFO       ACCESS:         21  HIT:         11  MISS:         10
LLC PREFETCH  ACCESS:   16893247  HIT:    1918120  MISS:   14975127
LLC WRITEBACK ACCESS:    8793113  HIT:    8793094  MISS:         19
LLC PREFETCH  REQUESTED:          0  ISSUED:          0  USEFUL:    3949137  USELESS:  109524894
Major fault: 0 Minor fault: 941584

CPU 2 cumulative IPC: 1.09838 instructions: 1000000002 cycles: 910435733
L1D TOTAL     ACCESS:  179696348  HIT:  179317644  MISS:     378704
L1D LOAD      ACCESS:  138601759  HIT:  138560931  MISS:      40828
L1D RFO       ACCESS:   41094589  HIT:   40756713  MISS:     337876
L1D PREFETCH  ACCESS:          0  HIT:          0  MISS:          0
L1D WRITEBACK ACCESS:          0  HIT:          0  MISS:          0
L1D PREFETCH  REQUESTED:          0  ISSUED:          0  USEFUL:          0  USELESS:          0
L1I TOTAL     ACCESS:  247620644  HIT:  247620644  MISS:          0
L1I LOAD      ACCESS:  247620644  HIT:  247620644  MISS:          0
L1I RFO       ACCESS:          0  HIT:          0  MISS:          0
L1I PREFETCH  ACCESS:          0  HIT:          0  MISS:          0
L1I WRITEBACK ACCESS:          0  HIT:          0  MISS:          0
L1I PREFETCH  REQUESTED:          0  ISSUED:          0  USEFUL:          0  USELESS:          0
L2C TOTAL     ACCESS:     748977  HIT:     388328  MISS:     360649
L2C LOAD      ACCESS:      40828  HIT:      40167  MISS:        661
L2C RFO       ACCESS:     337876  HIT:      10189  MISS:     327687
L2C PREFETCH  ACCESS:      32318  HIT:         30  MISS:      32288
L2C WRITEBACK ACCESS:     337955  HIT:     337942  MISS:         13
L2C PREFETCH  REQUESTED:     151797  ISSUED:     151797  USEFUL:     150918  USELESS:        405
LLC TOTAL     ACCESS:     688351  HIT:     225123  MISS:     463228
LLC LOAD      ACCESS:        620  HIT:          0  MISS:        620
LLC RFO       ACCESS:     327687  HIT:          4  MISS:     327683
LLC PREFETCH  ACCESS:      32329  HIT:          0  MISS:      32329
LLC WRITEBACK ACCESS:     327715  HIT:     225119  MISS:     102596
LLC PREFETCH  REQUESTED:          0  ISSUED:          0  USEFUL:    3949137  USELESS:  109524894
Major fault: 0 Minor fault: 10313

CPU 3 cumulative IPC: 0.27536 instructions: 1000000002 cycles: 3631615192
L1D TOTAL     ACCESS:  344326716  HIT:  272910211  MISS:   71416505
L1D LOAD      ACCESS:  260923300  HIT:  192677740  MISS:   68245560
L1D RFO       ACCESS:   83403416  HIT:   80232471  MISS:    3170945
L1D PREFETCH  ACCESS:          0  HIT:          0  MISS:          0
L1D WRITEBACK ACCESS:          0  HIT:          0  MISS:          0
L1D PREFETCH  REQUESTED:          0  ISSUED:          0  USEFUL:          0  USELESS:          0
L1I TOTAL     ACCESS:  233895733  HIT:  233895733  MISS:          0
L1I LOAD      ACCESS:  233895733  HIT:  233895733  MISS:          0
L1I RFO       ACCESS:          0  HIT:          0  MISS:          0
L1I PREFETCH  ACCESS:          0  HIT:          0  MISS:          0
L1I WRITEBACK ACCESS:          0  HIT:          0  MISS:          0
L1I PREFETCH  REQUESTED:          0  ISSUED:          0  USEFUL:          0  USELESS:          0
L2C TOTAL     ACCESS:  119614709  HIT:   31168544  MISS:   88446165
L2C LOAD      ACCESS:   68245261  HIT:   23943889  MISS:   44301372
L2C RFO       ACCESS:    3170895  HIT:     380233  MISS:    2790662
L2C PREFETCH  ACCESS:   43071055  HIT:    1727733  MISS:   41343322
L2C WRITEBACK ACCESS:    5127498  HIT:    5116689  MISS:      10809
L2C PREFETCH  REQUESTED:   70669641  ISSUED:   70669641  USEFUL:   24347459  USELESS:   37487944
LLC TOTAL     ACCESS:   97104422  HIT:   61308898  MISS:   35795524
LLC LOAD      ACCESS:   43516965  HIT:   34625061  MISS:    8891904
LLC RFO       ACCESS:    2790653  HIT:    2769333  MISS:      21320
LLC PREFETCH  ACCESS:   46360497  HIT:   19479254  MISS:   26881243
LLC WRITEBACK ACCESS:    4436307  HIT:    4435250  MISS:       1057
LLC PREFETCH  REQUESTED:          0  ISSUED:          0  USEFUL:    3949137  USELESS:  109524894
Major fault: 0 Minor fault: 443599

L2C Best-offset prefetcher final stats

L2C Best-offset prefetcher final stats

L2C Best-offset prefetcher final stats

L2C Best-offset prefetcher final stats

DRAM Statistics
 CHANNEL 0
 RQ ROW_BUFFER_HIT:   31330845  ROW_BUFFER_MISS:   39057549
 DBUS_CONGESTED:   89396241
 WQ ROW_BUFFER_HIT:    1029540  ROW_BUFFER_MISS:   12249975  FULL:          0

 CHANNEL 1
 RQ ROW_BUFFER_HIT:   31403184  ROW_BUFFER_MISS:   39181979
 DBUS_CONGESTED:   89396241
 WQ ROW_BUFFER_HIT:    1030609  ROW_BUFFER_MISS:   12237304  FULL:          0

 AVG_CONGESTED_CYCLE: 12
