Initialize SIGNATURE TABLE
ST_SET: 1
ST_WAY: 256
ST_TAG_BIT: 16
ST_TAG_MASK: ffff

Initialize PATTERN TABLE
PT_SET: 512
PT_WAY: 4
SIG_DELTA_BIT: 7
C_SIG_BIT: 4
C_DELTA_BIT: 4

Initialize PREFETCH FILTER
FILTER_SET: 1024

Initialize PERCEPTRON
PERC_ENTRIES: 4096
PERC_FEATURES: 9

*** ChampSim Multicore Out-of-Order Simulator ***

Warmup Instructions: 20000000
Simulation Instructions: 10000000
Number of CPUs: 1
LLC sets: 2048
LLC ways: 16
Off-chip DRAM Size: 4096 MB Channels: 1 Width: 64-bit Data Rate: 1600 MT/s

CPU 0 runs /home/ubuntu/PPF_Paper_Source_Code-master/traces/605.mcf_s-1152B.champsimtrace.xz
Heartbeat CPU 0 instructions: 10000001 cycles: 6542954 heartbeat IPC: 1.52836 cumulative IPC: 1.52836 (Simulation time: 0 hr 0 min 23 sec) 
Heartbeat CPU 0 instructions: 20000000 cycles: 13090164 heartbeat IPC: 1.52737 cumulative IPC: 1.52786 (Simulation time: 0 hr 0 min 46 sec) 

Warmup complete CPU 0 instructions: 20000004 cycles: 13090166 (Simulation time: 0 hr 0 min 46 sec) 

Heartbeat CPU 0 instructions: 30000001 cycles: 44509952 heartbeat IPC: 0.318271 cumulative IPC: 0.318271 (Simulation time: 0 hr 1 min 32 sec) 
Finished CPU 0 instructions: 10000001 cycles: 31419788 cumulative IPC: 0.318271 (Simulation time: 0 hr 1 min 32 sec) 

CPU 0 Branch Prediction Accuracy: 90.918% MPKI: 18.3503

ChampSim completed all CPUs

Region of Interest Statistics

CPU 0 cumulative IPC: 0.318271 instructions: 10000001 cycles: 31419788
L1D TOTAL     ACCESS:    3709768  HIT:    3173931  MISS:     535837
L1D LOAD      ACCESS:    2728625  HIT:    2229718  MISS:     498907
L1D RFO       ACCESS:     981143  HIT:     944213  MISS:      36930
L1D PREFETCH  ACCESS:          0  HIT:          0  MISS:          0
L1D WRITEBACK ACCESS:          0  HIT:          0  MISS:          0
L1D PREFETCH  REQUESTED:          0  ISSUED:          0  USEFUL:          0  USELESS:          0
L1I TOTAL     ACCESS:    2283981  HIT:    2283981  MISS:          0
L1I LOAD      ACCESS:    2283981  HIT:    2283981  MISS:          0
L1I RFO       ACCESS:          0  HIT:          0  MISS:          0
L1I PREFETCH  ACCESS:          0  HIT:          0  MISS:          0
L1I WRITEBACK ACCESS:          0  HIT:          0  MISS:          0
L1I PREFETCH  REQUESTED:          0  ISSUED:          0  USEFUL:          0  USELESS:          0
L2C TOTAL     ACCESS:     743479  HIT:     281979  MISS:     461500
L2C LOAD      ACCESS:     498905  HIT:     204308  MISS:     294597
L2C RFO       ACCESS:      36929  HIT:      11514  MISS:      25415
L2C PREFETCH  ACCESS:     156209  HIT:      14782  MISS:     141427
L2C WRITEBACK ACCESS:      51436  HIT:      51375  MISS:         61
L2C PREFETCH  REQUESTED:     598284  ISSUED:     598284  USEFUL:     407424  USELESS:      64417
LLC TOTAL     ACCESS:     513012  HIT:     314168  MISS:     198844
LLC LOAD      ACCESS:     285077  HIT:     227972  MISS:      57105
LLC RFO       ACCESS:      25415  HIT:      25259  MISS:        156
LLC PREFETCH  ACCESS:     163529  HIT:      21962  MISS:     141567
LLC WRITEBACK ACCESS:      38991  HIT:      38975  MISS:         16
LLC PREFETCH  REQUESTED:          0  ISSUED:          0  USEFUL:      51581  USELESS:     383122
Major fault: 0 Minor fault: 8050
Printing all the perceptron weights to: perc_weights_0.csv

DRAM Statistics
 CHANNEL 0
 RQ ROW_BUFFER_HIT:     139272  ROW_BUFFER_MISS:      59478
 DBUS_CONGESTED:      88115
 WQ ROW_BUFFER_HIT:         76  ROW_BUFFER_MISS:       1224  FULL:          0

 AVG_CONGESTED_CYCLE: 12
