
*** ChampSim Multicore Out-of-Order Simulator ***

Warmup Instructions: 200000000
Simulation Instructions: 1000000000
Number of CPUs: 4
LLC sets: 8192
LLC ways: 16
Off-chip DRAM Size: 8192 MB Channels: 2 Width: 64-bit Data Rate: 1600 MT/s

CPU 0 runs /home/ubuntu/PPF_Paper_Source_Code-master/traces/623.xalancbmk_s-10B.champsimtrace.xz
CPU 1 runs /home/ubuntu/PPF_Paper_Source_Code-master/traces/649.fotonik3d_s-10881B.champsimtrace.xz
CPU 2 runs /home/ubuntu/PPF_Paper_Source_Code-master/traces/603.bwaves_s-1080B.champsimtrace.xz
CPU 3 runs /home/ubuntu/PPF_Paper_Source_Code-master/traces/605.mcf_s-1152B.champsimtrace.xz
Heartbeat CPU 2 instructions: 10000003 cycles: 4334847 heartbeat IPC: 2.30689 cumulative IPC: 2.30689 (Simulation time: 0 hr 1 min 0 sec) 
Heartbeat CPU 0 instructions: 10000001 cycles: 4881906 heartbeat IPC: 2.04838 cumulative IPC: 2.04838 (Simulation time: 0 hr 1 min 8 sec) 
Heartbeat CPU 3 instructions: 10000001 cycles: 6549303 heartbeat IPC: 1.52688 cumulative IPC: 1.52688 (Simulation time: 0 hr 1 min 33 sec) 
Heartbeat CPU 1 instructions: 10000001 cycles: 8413271 heartbeat IPC: 1.1886 cumulative IPC: 1.1886 (Simulation time: 0 hr 1 min 58 sec) 
Heartbeat CPU 2 instructions: 20000000 cycles: 8838509 heartbeat IPC: 2.22041 cumulative IPC: 2.26283 (Simulation time: 0 hr 2 min 4 sec) 
Heartbeat CPU 0 instructions: 20000000 cycles: 9684352 heartbeat IPC: 2.08227 cumulative IPC: 2.06519 (Simulation time: 0 hr 2 min 15 sec) 
Heartbeat CPU 2 instructions: 30000000 cycles: 12796350 heartbeat IPC: 2.52663 cumulative IPC: 2.34442 (Simulation time: 0 hr 2 min 56 sec) 
Heartbeat CPU 3 instructions: 20000000 cycles: 13100028 heartbeat IPC: 1.52655 cumulative IPC: 1.52671 (Simulation time: 0 hr 3 min 0 sec) 
Heartbeat CPU 0 instructions: 30000000 cycles: 14581842 heartbeat IPC: 2.04186 cumulative IPC: 2.05735 (Simulation time: 0 hr 3 min 21 sec) 
Heartbeat CPU 2 instructions: 40000000 cycles: 16751708 heartbeat IPC: 2.52822 cumulative IPC: 2.38782 (Simulation time: 0 hr 3 min 49 sec) 
Heartbeat CPU 1 instructions: 20000000 cycles: 16796321 heartbeat IPC: 1.19288 cumulative IPC: 1.19074 (Simulation time: 0 hr 3 min 49 sec) 
Heartbeat CPU 0 instructions: 40000000 cycles: 19509691 heartbeat IPC: 2.02928 cumulative IPC: 2.05026 (Simulation time: 0 hr 4 min 25 sec) 
Heartbeat CPU 3 instructions: 30000001 cycles: 19637805 heartbeat IPC: 1.52957 cumulative IPC: 1.52767 (Simulation time: 0 hr 4 min 27 sec) 
Heartbeat CPU 2 instructions: 50000000 cycles: 20725337 heartbeat IPC: 2.51659 cumulative IPC: 2.41251 (Simulation time: 0 hr 4 min 42 sec) 
Heartbeat CPU 0 instructions: 50000001 cycles: 24411466 heartbeat IPC: 2.04008 cumulative IPC: 2.04822 (Simulation time: 0 hr 5 min 30 sec) 
Heartbeat CPU 2 instructions: 60000000 cycles: 24717575 heartbeat IPC: 2.50486 cumulative IPC: 2.42742 (Simulation time: 0 hr 5 min 34 sec) 
Heartbeat CPU 1 instructions: 30000000 cycles: 25171185 heartbeat IPC: 1.19405 cumulative IPC: 1.19184 (Simulation time: 0 hr 5 min 40 sec) 
Heartbeat CPU 3 instructions: 40000000 cycles: 26183731 heartbeat IPC: 1.52767 cumulative IPC: 1.52767 (Simulation time: 0 hr 5 min 54 sec) 
Heartbeat CPU 2 instructions: 70000000 cycles: 28704191 heartbeat IPC: 2.50839 cumulative IPC: 2.43867 (Simulation time: 0 hr 6 min 28 sec) 
Heartbeat CPU 0 instructions: 60000000 cycles: 29226823 heartbeat IPC: 2.07669 cumulative IPC: 2.05291 (Simulation time: 0 hr 6 min 35 sec) 
Heartbeat CPU 2 instructions: 80000000 cycles: 32692832 heartbeat IPC: 2.50712 cumulative IPC: 2.44702 (Simulation time: 0 hr 7 min 22 sec) 
Heartbeat CPU 3 instructions: 50000000 cycles: 32724546 heartbeat IPC: 1.52886 cumulative IPC: 1.52791 (Simulation time: 0 hr 7 min 22 sec) 
Heartbeat CPU 1 instructions: 40000000 cycles: 33556813 heartbeat IPC: 1.19252 cumulative IPC: 1.19201 (Simulation time: 0 hr 7 min 34 sec) 
Heartbeat CPU 0 instructions: 70000000 cycles: 34228483 heartbeat IPC: 1.99934 cumulative IPC: 2.04508 (Simulation time: 0 hr 7 min 43 sec) 
Heartbeat CPU 2 instructions: 90000000 cycles: 36687154 heartbeat IPC: 2.50355 cumulative IPC: 2.45317 (Simulation time: 0 hr 8 min 15 sec) 
Heartbeat CPU 0 instructions: 80000000 cycles: 39025620 heartbeat IPC: 2.08458 cumulative IPC: 2.04994 (Simulation time: 0 hr 8 min 48 sec) 
Heartbeat CPU 3 instructions: 60000000 cycles: 39258104 heartbeat IPC: 1.53056 cumulative IPC: 1.52835 (Simulation time: 0 hr 8 min 51 sec) 
Heartbeat CPU 2 instructions: 100000000 cycles: 40674048 heartbeat IPC: 2.50822 cumulative IPC: 2.45857 (Simulation time: 0 hr 9 min 10 sec) 
Heartbeat CPU 1 instructions: 50000001 cycles: 41976236 heartbeat IPC: 1.18773 cumulative IPC: 1.19115 (Simulation time: 0 hr 9 min 28 sec) 
Heartbeat CPU 0 instructions: 90000001 cycles: 43981934 heartbeat IPC: 2.01763 cumulative IPC: 2.04629 (Simulation time: 0 hr 9 min 55 sec) 
Heartbeat CPU 2 instructions: 110000001 cycles: 44645418 heartbeat IPC: 2.51802 cumulative IPC: 2.46386 (Simulation time: 0 hr 10 min 4 sec) 
Heartbeat CPU 3 instructions: 70000000 cycles: 45808109 heartbeat IPC: 1.52672 cumulative IPC: 1.52811 (Simulation time: 0 hr 10 min 20 sec) 
Heartbeat CPU 2 instructions: 120000000 cycles: 48604110 heartbeat IPC: 2.52609 cumulative IPC: 2.46893 (Simulation time: 0 hr 10 min 56 sec) 
Heartbeat CPU 0 instructions: 100000000 cycles: 48941920 heartbeat IPC: 2.01613 cumulative IPC: 2.04324 (Simulation time: 0 hr 11 min 1 sec) 
Heartbeat CPU 1 instructions: 60000000 cycles: 50367850 heartbeat IPC: 1.19167 cumulative IPC: 1.19124 (Simulation time: 0 hr 11 min 20 sec) 
Heartbeat CPU 3 instructions: 80000000 cycles: 52329312 heartbeat IPC: 1.53346 cumulative IPC: 1.52878 (Simulation time: 0 hr 11 min 46 sec) 
Heartbeat CPU 2 instructions: 130000002 cycles: 52556918 heartbeat IPC: 2.52985 cumulative IPC: 2.47351 (Simulation time: 0 hr 11 min 49 sec) 
Heartbeat CPU 0 instructions: 110000000 cycles: 53998583 heartbeat IPC: 1.97759 cumulative IPC: 2.03709 (Simulation time: 0 hr 12 min 8 sec) 
Heartbeat CPU 2 instructions: 140000000 cycles: 56513396 heartbeat IPC: 2.5275 cumulative IPC: 2.47729 (Simulation time: 0 hr 12 min 41 sec) 
Heartbeat CPU 1 instructions: 70000003 cycles: 58738317 heartbeat IPC: 1.19468 cumulative IPC: 1.19173 (Simulation time: 0 hr 13 min 12 sec) 
Heartbeat CPU 0 instructions: 120000000 cycles: 58819941 heartbeat IPC: 2.0741 cumulative IPC: 2.04012 (Simulation time: 0 hr 13 min 13 sec) 
Heartbeat CPU 3 instructions: 90000002 cycles: 58847820 heartbeat IPC: 1.53409 cumulative IPC: 1.52937 (Simulation time: 0 hr 13 min 13 sec) 
Heartbeat CPU 2 instructions: 150000002 cycles: 60492173 heartbeat IPC: 2.51334 cumulative IPC: 2.47966 (Simulation time: 0 hr 13 min 36 sec) 
Heartbeat CPU 0 instructions: 130000003 cycles: 63673778 heartbeat IPC: 2.06023 cumulative IPC: 2.04166 (Simulation time: 0 hr 14 min 19 sec) 
Heartbeat CPU 2 instructions: 160000000 cycles: 64471063 heartbeat IPC: 2.51326 cumulative IPC: 2.48173 (Simulation time: 0 hr 14 min 30 sec) 
Heartbeat CPU 3 instructions: 100000000 cycles: 65354371 heartbeat IPC: 1.53691 cumulative IPC: 1.53012 (Simulation time: 0 hr 14 min 42 sec) 
Heartbeat CPU 1 instructions: 80000000 cycles: 67126145 heartbeat IPC: 1.1922 cumulative IPC: 1.19179 (Simulation time: 0 hr 15 min 6 sec) 
Heartbeat CPU 2 instructions: 170000003 cycles: 68467709 heartbeat IPC: 2.5021 cumulative IPC: 2.48292 (Simulation time: 0 hr 15 min 24 sec) 
Heartbeat CPU 0 instructions: 140000000 cycles: 68690811 heartbeat IPC: 1.99321 cumulative IPC: 2.03812 (Simulation time: 0 hr 15 min 27 sec) 
Heartbeat CPU 3 instructions: 110000000 cycles: 71854136 heartbeat IPC: 1.53852 cumulative IPC: 1.53088 (Simulation time: 0 hr 16 min 10 sec) 
Heartbeat CPU 2 instructions: 180000000 cycles: 72444342 heartbeat IPC: 2.51469 cumulative IPC: 2.48467 (Simulation time: 0 hr 16 min 18 sec) 
Heartbeat CPU 0 instructions: 150000000 cycles: 73648103 heartbeat IPC: 2.01723 cumulative IPC: 2.03671 (Simulation time: 0 hr 16 min 33 sec) 
Heartbeat CPU 1 instructions: 90000001 cycles: 75533182 heartbeat IPC: 1.18948 cumulative IPC: 1.19153 (Simulation time: 0 hr 17 min 0 sec) 
Heartbeat CPU 2 instructions: 190000002 cycles: 76438084 heartbeat IPC: 2.50392 cumulative IPC: 2.48567 (Simulation time: 0 hr 17 min 12 sec) 
Heartbeat CPU 3 instructions: 120000000 cycles: 78349314 heartbeat IPC: 1.5396 cumulative IPC: 1.5316 (Simulation time: 0 hr 17 min 38 sec) 
Heartbeat CPU 0 instructions: 160000000 cycles: 78539714 heartbeat IPC: 2.04432 cumulative IPC: 2.03719 (Simulation time: 0 hr 17 min 41 sec) 
Heartbeat CPU 2 instructions: 200000000 cycles: 80433907 heartbeat IPC: 2.50261 cumulative IPC: 2.48651 (Simulation time: 0 hr 18 min 7 sec) 
Heartbeat CPU 0 instructions: 170000000 cycles: 83320321 heartbeat IPC: 2.09178 cumulative IPC: 2.04032 (Simulation time: 0 hr 18 min 46 sec) 
Heartbeat CPU 1 instructions: 100000000 cycles: 83913003 heartbeat IPC: 1.19334 cumulative IPC: 1.19171 (Simulation time: 0 hr 18 min 54 sec) 
Heartbeat CPU 2 instructions: 210000003 cycles: 84412912 heartbeat IPC: 2.51319 cumulative IPC: 0.118465 (Simulation time: 0 hr 19 min 1 sec) 
Heartbeat CPU 3 instructions: 130000001 cycles: 84814367 heartbeat IPC: 1.54678 cumulative IPC: 1.53276 (Simulation time: 0 hr 19 min 7 sec) 
Heartbeat CPU 0 instructions: 180000000 cycles: 88225582 heartbeat IPC: 2.03863 cumulative IPC: 2.04022 (Simulation time: 0 hr 19 min 52 sec) 
Heartbeat CPU 2 instructions: 220000000 cycles: 88408614 heartbeat IPC: 2.50269 cumulative IPC: 0.226222 (Simulation time: 0 hr 19 min 55 sec) 
Heartbeat CPU 3 instructions: 140000000 cycles: 91261644 heartbeat IPC: 1.55104 cumulative IPC: 1.53405 (Simulation time: 0 hr 20 min 34 sec) 
Heartbeat CPU 1 instructions: 110000002 cycles: 92302167 heartbeat IPC: 1.19201 cumulative IPC: 1.19174 (Simulation time: 0 hr 20 min 48 sec) 
Heartbeat CPU 2 instructions: 230000000 cycles: 92392448 heartbeat IPC: 2.51014 cumulative IPC: 0.324702 (Simulation time: 0 hr 20 min 49 sec) 
Heartbeat CPU 0 instructions: 190000001 cycles: 93103098 heartbeat IPC: 2.05022 cumulative IPC: 2.04075 (Simulation time: 0 hr 20 min 59 sec) 
Heartbeat CPU 2 instructions: 240000000 cycles: 96384409 heartbeat IPC: 2.50503 cumulative IPC: 0.415005 (Simulation time: 0 hr 21 min 42 sec) 
Heartbeat CPU 3 instructions: 150000000 cycles: 97623650 heartbeat IPC: 1.57183 cumulative IPC: 1.53651 (Simulation time: 0 hr 21 min 59 sec) 
Heartbeat CPU 0 instructions: 200000000 cycles: 98076944 heartbeat IPC: 2.01052 cumulative IPC: 2.03922 (Simulation time: 0 hr 22 min 5 sec) 
Heartbeat CPU 2 instructions: 250000003 cycles: 100375036 heartbeat IPC: 2.50587 cumulative IPC: 0.498132 (Simulation time: 0 hr 22 min 36 sec) 
Heartbeat CPU 1 instructions: 120000000 cycles: 100699928 heartbeat IPC: 1.19079 cumulative IPC: 1.19166 (Simulation time: 0 hr 22 min 41 sec) 
Heartbeat CPU 0 instructions: 210000000 cycles: 102946658 heartbeat IPC: 2.05351 cumulative IPC: 0.0971377 (Simulation time: 0 hr 23 min 11 sec) 
Heartbeat CPU 3 instructions: 160000000 cycles: 103917211 heartbeat IPC: 1.58893 cumulative IPC: 1.53969 (Simulation time: 0 hr 23 min 24 sec) 
Heartbeat CPU 2 instructions: 260000000 cycles: 104361599 heartbeat IPC: 2.50843 cumulative IPC: 0.574924 (Simulation time: 0 hr 23 min 30 sec) 
Heartbeat CPU 0 instructions: 220000000 cycles: 107998158 heartbeat IPC: 1.97961 cumulative IPC: 0.185188 (Simulation time: 0 hr 24 min 19 sec) 
Heartbeat CPU 2 instructions: 270000002 cycles: 108354928 heartbeat IPC: 2.50418 cumulative IPC: 0.646025 (Simulation time: 0 hr 24 min 24 sec) 
Heartbeat CPU 1 instructions: 130000001 cycles: 109103402 heartbeat IPC: 1.18998 cumulative IPC: 1.19153 (Simulation time: 0 hr 24 min 34 sec) 
Heartbeat CPU 3 instructions: 170000000 cycles: 110190124 heartbeat IPC: 1.59416 cumulative IPC: 1.54279 (Simulation time: 0 hr 24 min 48 sec) 
Heartbeat CPU 2 instructions: 280000000 cycles: 112344247 heartbeat IPC: 2.50669 cumulative IPC: 0.712097 (Simulation time: 0 hr 25 min 17 sec) 
Heartbeat CPU 0 instructions: 230000001 cycles: 112972407 heartbeat IPC: 2.01035 cumulative IPC: 0.265552 (Simulation time: 0 hr 25 min 26 sec) 
Heartbeat CPU 2 instructions: 290000001 cycles: 116327917 heartbeat IPC: 2.51025 cumulative IPC: 0.773675 (Simulation time: 0 hr 26 min 12 sec) 
Heartbeat CPU 3 instructions: 180000000 cycles: 116361669 heartbeat IPC: 1.62034 cumulative IPC: 1.5469 (Simulation time: 0 hr 26 min 12 sec) 
Heartbeat CPU 1 instructions: 140000000 cycles: 117484385 heartbeat IPC: 1.19318 cumulative IPC: 1.19165 (Simulation time: 0 hr 26 min 28 sec) 
Heartbeat CPU 0 instructions: 240000000 cycles: 117962703 heartbeat IPC: 2.00389 cumulative IPC: 0.33909 (Simulation time: 0 hr 26 min 35 sec) 
Heartbeat CPU 2 instructions: 300000000 cycles: 120320898 heartbeat IPC: 2.50439 cumulative IPC: 0.831111 (Simulation time: 0 hr 27 min 7 sec) 
Heartbeat CPU 3 instructions: 190000001 cycles: 122575587 heartbeat IPC: 1.60929 cumulative IPC: 1.55006 (Simulation time: 0 hr 27 min 38 sec) 
Heartbeat CPU 0 instructions: 250000002 cycles: 122895442 heartbeat IPC: 2.02727 cumulative IPC: 0.40685 (Simulation time: 0 hr 27 min 42 sec) 
Heartbeat CPU 2 instructions: 310000001 cycles: 124305717 heartbeat IPC: 2.50952 cumulative IPC: 0.884915 (Simulation time: 0 hr 28 min 1 sec) 
Heartbeat CPU 1 instructions: 150000002 cycles: 125859131 heartbeat IPC: 1.19407 cumulative IPC: 1.19181 (Simulation time: 0 hr 28 min 21 sec) 
Heartbeat CPU 0 instructions: 260000000 cycles: 127872389 heartbeat IPC: 2.00926 cumulative IPC: 0.469218 (Simulation time: 0 hr 28 min 48 sec) 
Heartbeat CPU 2 instructions: 320000000 cycles: 128298022 heartbeat IPC: 2.50482 cumulative IPC: 0.935322 (Simulation time: 0 hr 28 min 53 sec) 
Heartbeat CPU 3 instructions: 200000000 cycles: 128807990 heartbeat IPC: 1.60452 cumulative IPC: 1.5527 (Simulation time: 0 hr 29 min 0 sec) 
Heartbeat CPU 2 instructions: 330000003 cycles: 132278907 heartbeat IPC: 2.51201 cumulative IPC: 0.982772 (Simulation time: 0 hr 29 min 47 sec) 
Heartbeat CPU 0 instructions: 270000000 cycles: 132907986 heartbeat IPC: 1.98586 cumulative IPC: 0.52668 (Simulation time: 0 hr 29 min 55 sec) 
Heartbeat CPU 1 instructions: 160000000 cycles: 134258066 heartbeat IPC: 1.19063 cumulative IPC: 1.19173 (Simulation time: 0 hr 30 min 13 sec) 
Heartbeat CPU 3 instructions: 210000002 cycles: 135056511 heartbeat IPC: 1.60038 cumulative IPC: 0.0740431 (Simulation time: 0 hr 30 min 23 sec) 
Heartbeat CPU 2 instructions: 340000000 cycles: 136254746 heartbeat IPC: 2.51519 cumulative IPC: 1.02749 (Simulation time: 0 hr 30 min 39 sec) 
Heartbeat CPU 0 instructions: 280000000 cycles: 137794979 heartbeat IPC: 2.04625 cumulative IPC: 0.580573 (Simulation time: 0 hr 30 min 59 sec) 
Heartbeat CPU 2 instructions: 350000000 cycles: 140212209 heartbeat IPC: 2.52687 cumulative IPC: 1.06981 (Simulation time: 0 hr 31 min 31 sec) 
Heartbeat CPU 3 instructions: 220000000 cycles: 141303254 heartbeat IPC: 1.60083 cumulative IPC: 0.14154 (Simulation time: 0 hr 31 min 46 sec) 
Heartbeat CPU 0 instructions: 290000002 cycles: 142644253 heartbeat IPC: 2.06216 cumulative IPC: 0.63094 (Simulation time: 0 hr 32 min 4 sec) 
Heartbeat CPU 1 instructions: 170000000 cycles: 142664785 heartbeat IPC: 1.18952 cumulative IPC: 1.1916 (Simulation time: 0 hr 32 min 4 sec) 
Heartbeat CPU 2 instructions: 360000000 cycles: 144164622 heartbeat IPC: 2.5301 cumulative IPC: 1.10984 (Simulation time: 0 hr 32 min 24 sec) 
Heartbeat CPU 3 instructions: 230000001 cycles: 147597309 heartbeat IPC: 1.5888 cumulative IPC: 0.203256 (Simulation time: 0 hr 33 min 12 sec) 
Heartbeat CPU 0 instructions: 300000000 cycles: 147697922 heartbeat IPC: 1.97876 cumulative IPC: 0.677058 (Simulation time: 0 hr 33 min 13 sec) 
Heartbeat CPU 2 instructions: 370000002 cycles: 148122257 heartbeat IPC: 2.52676 cumulative IPC: 1.1477 (Simulation time: 0 hr 33 min 20 sec) 
Heartbeat CPU 1 instructions: 180000000 cycles: 151041233 heartbeat IPC: 1.19382 cumulative IPC: 1.19173 (Simulation time: 0 hr 33 min 59 sec) 
Heartbeat CPU 2 instructions: 380000000 cycles: 152091305 heartbeat IPC: 2.5195 cumulative IPC: 1.1835 (Simulation time: 0 hr 34 min 14 sec) 
Heartbeat CPU 0 instructions: 310000003 cycles: 152591158 heartbeat IPC: 2.04364 cumulative IPC: 0.720881 (Simulation time: 0 hr 34 min 21 sec) 
Heartbeat CPU 3 instructions: 240000000 cycles: 153939091 heartbeat IPC: 1.57684 cumulative IPC: 0.259843 (Simulation time: 0 hr 34 min 39 sec) 
Heartbeat CPU 2 instructions: 390000003 cycles: 156086622 heartbeat IPC: 2.50293 cumulative IPC: 1.21727 (Simulation time: 0 hr 35 min 9 sec) 
Heartbeat CPU 0 instructions: 320000000 cycles: 157531071 heartbeat IPC: 2.02433 cumulative IPC: 0.761755 (Simulation time: 0 hr 35 min 29 sec) 
Heartbeat CPU 1 instructions: 190000001 cycles: 159430662 heartbeat IPC: 1.19198 cumulative IPC: 1.19174 (Simulation time: 0 hr 35 min 54 sec) 
Heartbeat CPU 2 instructions: 400000000 cycles: 160072568 heartbeat IPC: 2.50881 cumulative IPC: 1.24943 (Simulation time: 0 hr 36 min 3 sec) 
Heartbeat CPU 3 instructions: 250000000 cycles: 160318116 heartbeat IPC: 1.56764 cumulative IPC: 0.31188 (Simulation time: 0 hr 36 min 7 sec) 
Heartbeat CPU 0 instructions: 330000003 cycles: 162343575 heartbeat IPC: 2.07792 cumulative IPC: 0.800771 (Simulation time: 0 hr 36 min 35 sec) 
Heartbeat CPU 2 instructions: 410000000 cycles: 164064088 heartbeat IPC: 2.50531 cumulative IPC: 1.27999 (Simulation time: 0 hr 36 min 58 sec) 
Heartbeat CPU 3 instructions: 260000000 cycles: 166702255 heartbeat IPC: 1.56638 cumulative IPC: 0.359923 (Simulation time: 0 hr 37 min 33 sec) 
Heartbeat CPU 0 instructions: 340000000 cycles: 167403589 heartbeat IPC: 1.97628 cumulative IPC: 0.836302 (Simulation time: 0 hr 37 min 42 sec) 
Heartbeat CPU 1 instructions: 200000000 cycles: 167827161 heartbeat IPC: 1.19097 cumulative IPC: 1.1917 (Simulation time: 0 hr 37 min 48 sec) 

Warmup complete CPU 0 instructions: 340680772 cycles: 167827180 (Simulation time: 0 hr 37 min 48 sec) 
Warmup complete CPU 1 instructions: 200000001 cycles: 167827180 (Simulation time: 0 hr 37 min 48 sec) 
Warmup complete CPU 2 instructions: 419443237 cycles: 167827179 (Simulation time: 0 hr 37 min 48 sec) 
Warmup complete CPU 3 instructions: 261751437 cycles: 167827179 (Simulation time: 0 hr 37 min 48 sec) 

Heartbeat CPU 2 instructions: 420000000 cycles: 168322679 heartbeat IPC: 2.34819 cumulative IPC: 1.12364 (Simulation time: 0 hr 37 min 51 sec) 
Heartbeat CPU 2 instructions: 430000002 cycles: 177180452 heartbeat IPC: 1.12895 cumulative IPC: 1.12867 (Simulation time: 0 hr 38 min 44 sec) 
Heartbeat CPU 2 instructions: 440000000 cycles: 185738054 heartbeat IPC: 1.16855 cumulative IPC: 1.14773 (Simulation time: 0 hr 39 min 32 sec) 
Heartbeat CPU 1 instructions: 210000002 cycles: 191816431 heartbeat IPC: 0.416853 cumulative IPC: 0.416853 (Simulation time: 0 hr 40 min 8 sec) 
Heartbeat CPU 2 instructions: 450000001 cycles: 194269800 heartbeat IPC: 1.17209 cumulative IPC: 1.15559 (Simulation time: 0 hr 40 min 22 sec) 
Heartbeat CPU 3 instructions: 270000000 cycles: 201914618 heartbeat IPC: 0.283991 cumulative IPC: 0.241982 (Simulation time: 0 hr 41 min 7 sec) 
Heartbeat CPU 2 instructions: 460000000 cycles: 202810139 heartbeat IPC: 1.17091 cumulative IPC: 1.15933 (Simulation time: 0 hr 41 min 12 sec) 
Heartbeat CPU 0 instructions: 350000002 cycles: 210547377 heartbeat IPC: 0.231783 cumulative IPC: 0.218146 (Simulation time: 0 hr 41 min 57 sec) 
Heartbeat CPU 2 instructions: 470000000 cycles: 214403780 heartbeat IPC: 0.862542 cumulative IPC: 1.08545 (Simulation time: 0 hr 42 min 19 sec) 
Heartbeat CPU 1 instructions: 220000000 cycles: 216562925 heartbeat IPC: 0.404098 cumulative IPC: 0.410376 (Simulation time: 0 hr 42 min 32 sec) 
Heartbeat CPU 2 instructions: 480000000 cycles: 224013017 heartbeat IPC: 1.04067 cumulative IPC: 1.07779 (Simulation time: 0 hr 43 min 12 sec) 
Heartbeat CPU 2 instructions: 490000000 cycles: 232869942 heartbeat IPC: 1.12906 cumulative IPC: 1.08477 (Simulation time: 0 hr 44 min 4 sec) 
Heartbeat CPU 1 instructions: 230000002 cycles: 241184992 heartbeat IPC: 0.40614 cumulative IPC: 0.408954 (Simulation time: 0 hr 44 min 53 sec) 
Heartbeat CPU 2 instructions: 500000000 cycles: 241774369 heartbeat IPC: 1.12304 cumulative IPC: 1.08938 (Simulation time: 0 hr 44 min 56 sec) 
Heartbeat CPU 3 instructions: 280000000 cycles: 244498166 heartbeat IPC: 0.234832 cumulative IPC: 0.238011 (Simulation time: 0 hr 45 min 11 sec) 
Heartbeat CPU 2 instructions: 510000003 cycles: 250748227 heartbeat IPC: 1.11435 cumulative IPC: 1.09208 (Simulation time: 0 hr 45 min 47 sec) 
Heartbeat CPU 0 instructions: 360000000 cycles: 251057774 heartbeat IPC: 0.24685 cumulative IPC: 0.232117 (Simulation time: 0 hr 45 min 48 sec) 
Heartbeat CPU 2 instructions: 520000000 cycles: 259721783 heartbeat IPC: 1.11439 cumulative IPC: 1.09426 (Simulation time: 0 hr 46 min 38 sec) 
Heartbeat CPU 1 instructions: 240000000 cycles: 265480946 heartbeat IPC: 0.411591 cumulative IPC: 0.40961 (Simulation time: 0 hr 47 min 10 sec) 
Heartbeat CPU 2 instructions: 530000001 cycles: 269293665 heartbeat IPC: 1.04473 cumulative IPC: 1.08959 (Simulation time: 0 hr 47 min 33 sec) 
Heartbeat CPU 2 instructions: 540000000 cycles: 278972361 heartbeat IPC: 1.0332 cumulative IPC: 1.08468 (Simulation time: 0 hr 48 min 27 sec) 
Heartbeat CPU 3 instructions: 290000000 cycles: 286163857 heartbeat IPC: 0.240006 cumulative IPC: 0.238714 (Simulation time: 0 hr 49 min 6 sec) 
Heartbeat CPU 2 instructions: 550000000 cycles: 288624040 heartbeat IPC: 1.03609 cumulative IPC: 1.0808 (Simulation time: 0 hr 49 min 21 sec) 
Heartbeat CPU 1 instructions: 250000001 cycles: 289595876 heartbeat IPC: 0.414681 cumulative IPC: 0.410615 (Simulation time: 0 hr 49 min 27 sec) 
Heartbeat CPU 0 instructions: 370000002 cycles: 294375820 heartbeat IPC: 0.230851 cumulative IPC: 0.231683 (Simulation time: 0 hr 49 min 53 sec) 
Heartbeat CPU 2 instructions: 560000000 cycles: 298253571 heartbeat IPC: 1.03847 cumulative IPC: 1.07767 (Simulation time: 0 hr 50 min 14 sec) 
Heartbeat CPU 2 instructions: 570000002 cycles: 307910211 heartbeat IPC: 1.03556 cumulative IPC: 1.07477 (Simulation time: 0 hr 51 min 9 sec) 
Heartbeat CPU 1 instructions: 260000000 cycles: 313933923 heartbeat IPC: 0.410879 cumulative IPC: 0.410659 (Simulation time: 0 hr 51 min 44 sec) 
Heartbeat CPU 2 instructions: 580000000 cycles: 317543089 heartbeat IPC: 1.03811 cumulative IPC: 1.07241 (Simulation time: 0 hr 52 min 4 sec) 
Heartbeat CPU 2 instructions: 590000000 cycles: 327247741 heartbeat IPC: 1.03043 cumulative IPC: 1.06985 (Simulation time: 0 hr 52 min 59 sec) 
Heartbeat CPU 3 instructions: 300000000 cycles: 327516189 heartbeat IPC: 0.241824 cumulative IPC: 0.239519 (Simulation time: 0 hr 53 min 1 sec) 
Heartbeat CPU 2 instructions: 600000000 cycles: 336960030 heartbeat IPC: 1.02962 cumulative IPC: 1.06754 (Simulation time: 0 hr 53 min 55 sec) 
Heartbeat CPU 0 instructions: 380000000 cycles: 337522361 heartbeat IPC: 0.231768 cumulative IPC: 0.231705 (Simulation time: 0 hr 53 min 58 sec) 
Heartbeat CPU 1 instructions: 270000001 cycles: 338333742 heartbeat IPC: 0.409839 cumulative IPC: 0.410541 (Simulation time: 0 hr 54 min 3 sec) 
Heartbeat CPU 2 instructions: 610000003 cycles: 346666139 heartbeat IPC: 1.03028 cumulative IPC: 1.06552 (Simulation time: 0 hr 54 min 51 sec) 
Heartbeat CPU 2 instructions: 620000000 cycles: 356379297 heartbeat IPC: 1.02953 cumulative IPC: 1.06367 (Simulation time: 0 hr 55 min 42 sec) 
Heartbeat CPU 2 instructions: 630000002 cycles: 366091795 heartbeat IPC: 1.0296 cumulative IPC: 1.062 (Simulation time: 0 hr 56 min 26 sec) 
Heartbeat CPU 3 instructions: 310000003 cycles: 370174552 heartbeat IPC: 0.234421 cumulative IPC: 0.238444 (Simulation time: 0 hr 56 min 46 sec) 
Heartbeat CPU 2 instructions: 640000000 cycles: 375705475 heartbeat IPC: 1.04018 cumulative IPC: 1.06099 (Simulation time: 0 hr 57 min 11 sec) 
Heartbeat CPU 2 instructions: 650000000 cycles: 384679283 heartbeat IPC: 1.11435 cumulative IPC: 1.0632 (Simulation time: 0 hr 57 min 51 sec) 
Heartbeat CPU 0 instructions: 390000000 cycles: 385656336 heartbeat IPC: 0.207753 cumulative IPC: 0.226412 (Simulation time: 0 hr 57 min 55 sec) 
Heartbeat CPU 1 instructions: 280000000 cycles: 388054086 heartbeat IPC: 0.201125 cumulative IPC: 0.363262 (Simulation time: 0 hr 58 min 6 sec) 
Heartbeat CPU 2 instructions: 660000000 cycles: 393566282 heartbeat IPC: 1.12524 cumulative IPC: 1.06564 (Simulation time: 0 hr 58 min 31 sec) 
Heartbeat CPU 2 instructions: 670000000 cycles: 402794080 heartbeat IPC: 1.08368 cumulative IPC: 1.06635 (Simulation time: 0 hr 59 min 13 sec) 
Heartbeat CPU 2 instructions: 680000000 cycles: 411658427 heartbeat IPC: 1.12811 cumulative IPC: 1.06859 (Simulation time: 0 hr 59 min 53 sec) 
Heartbeat CPU 3 instructions: 320000000 cycles: 415320864 heartbeat IPC: 0.221502 cumulative IPC: 0.235354 (Simulation time: 1 hr 0 min 10 sec) 
Heartbeat CPU 2 instructions: 690000000 cycles: 420456153 heartbeat IPC: 1.13666 cumulative IPC: 1.07096 (Simulation time: 1 hr 0 min 33 sec) 
Heartbeat CPU 2 instructions: 700000000 cycles: 429249411 heartbeat IPC: 1.13723 cumulative IPC: 1.07319 (Simulation time: 1 hr 1 min 12 sec) 
Heartbeat CPU 0 instructions: 400000000 cycles: 435125228 heartbeat IPC: 0.202147 cumulative IPC: 0.221922 (Simulation time: 1 hr 1 min 41 sec) 
Heartbeat CPU 2 instructions: 710000002 cycles: 438044248 heartbeat IPC: 1.13703 cumulative IPC: 1.07527 (Simulation time: 1 hr 1 min 58 sec) 
Heartbeat CPU 1 instructions: 290000000 cycles: 445095686 heartbeat IPC: 0.175311 cumulative IPC: 0.324595 (Simulation time: 1 hr 2 min 38 sec) 
Heartbeat CPU 2 instructions: 720000000 cycles: 446946925 heartbeat IPC: 1.12326 cumulative IPC: 1.0768 (Simulation time: 1 hr 2 min 48 sec) 
Heartbeat CPU 3 instructions: 330000002 cycles: 458610029 heartbeat IPC: 0.231005 cumulative IPC: 0.234706 (Simulation time: 1 hr 3 min 52 sec) 
Heartbeat CPU 2 instructions: 730000003 cycles: 459010378 heartbeat IPC: 0.82895 cumulative IPC: 1.06653 (Simulation time: 1 hr 3 min 54 sec) 
Heartbeat CPU 2 instructions: 740000000 cycles: 468116441 heartbeat IPC: 1.09817 cumulative IPC: 1.06749 (Simulation time: 1 hr 4 min 46 sec) 
Heartbeat CPU 1 instructions: 300000000 cycles: 470635809 heartbeat IPC: 0.391541 cumulative IPC: 0.330242 (Simulation time: 1 hr 5 min 1 sec) 
Heartbeat CPU 2 instructions: 750000001 cycles: 476870555 heartbeat IPC: 1.14232 cumulative IPC: 1.06961 (Simulation time: 1 hr 5 min 35 sec) 
Heartbeat CPU 0 instructions: 410000001 cycles: 479962313 heartbeat IPC: 0.22303 cumulative IPC: 0.222081 (Simulation time: 1 hr 5 min 53 sec) 
Heartbeat CPU 2 instructions: 760000000 cycles: 485639253 heartbeat IPC: 1.14042 cumulative IPC: 1.07157 (Simulation time: 1 hr 6 min 24 sec) 
Heartbeat CPU 2 instructions: 770000003 cycles: 494394072 heartbeat IPC: 1.14223 cumulative IPC: 1.07346 (Simulation time: 1 hr 7 min 14 sec) 
Heartbeat CPU 1 instructions: 310000002 cycles: 495781993 heartbeat IPC: 0.397675 cumulative IPC: 0.335412 (Simulation time: 1 hr 7 min 22 sec) 
Heartbeat CPU 3 instructions: 340000000 cycles: 500693782 heartbeat IPC: 0.237621 cumulative IPC: 0.235075 (Simulation time: 1 hr 7 min 49 sec) 
Heartbeat CPU 2 instructions: 780000000 cycles: 503219133 heartbeat IPC: 1.13314 cumulative IPC: 1.07503 (Simulation time: 1 hr 8 min 2 sec) 
Heartbeat CPU 2 instructions: 790000001 cycles: 512115275 heartbeat IPC: 1.12408 cumulative IPC: 1.0763 (Simulation time: 1 hr 8 min 52 sec) 
Heartbeat CPU 1 instructions: 320000000 cycles: 520763898 heartbeat IPC: 0.40029 cumulative IPC: 0.340004 (Simulation time: 1 hr 9 min 40 sec) 
Heartbeat CPU 2 instructions: 800000000 cycles: 521180948 heartbeat IPC: 1.10306 cumulative IPC: 1.07699 (Simulation time: 1 hr 9 min 42 sec) 
Heartbeat CPU 0 instructions: 420000000 cycles: 525260160 heartbeat IPC: 0.220761 cumulative IPC: 0.221914 (Simulation time: 1 hr 10 min 5 sec) 
Heartbeat CPU 2 instructions: 810000000 cycles: 530475119 heartbeat IPC: 1.07594 cumulative IPC: 1.07696 (Simulation time: 1 hr 10 min 35 sec) 
Heartbeat CPU 2 instructions: 820000000 cycles: 539820178 heartbeat IPC: 1.07008 cumulative IPC: 1.07679 (Simulation time: 1 hr 11 min 28 sec) 
Heartbeat CPU 3 instructions: 350000001 cycles: 542465262 heartbeat IPC: 0.239398 cumulative IPC: 0.235557 (Simulation time: 1 hr 11 min 42 sec) 
Heartbeat CPU 1 instructions: 330000002 cycles: 546143884 heartbeat IPC: 0.394011 cumulative IPC: 0.343627 (Simulation time: 1 hr 12 min 3 sec) 
Heartbeat CPU 2 instructions: 830000003 cycles: 548885075 heartbeat IPC: 1.10316 cumulative IPC: 1.07741 (Simulation time: 1 hr 12 min 18 sec) 
Heartbeat CPU 2 instructions: 840000000 cycles: 557963240 heartbeat IPC: 1.10154 cumulative IPC: 1.07797 (Simulation time: 1 hr 13 min 8 sec) 
Heartbeat CPU 2 instructions: 850000000 cycles: 567029477 heartbeat IPC: 1.10299 cumulative IPC: 1.07854 (Simulation time: 1 hr 13 min 59 sec) 
Heartbeat CPU 0 instructions: 430000002 cycles: 571065459 heartbeat IPC: 0.218315 cumulative IPC: 0.221505 (Simulation time: 1 hr 14 min 21 sec) 
Heartbeat CPU 1 instructions: 340000000 cycles: 571506650 heartbeat IPC: 0.394279 cumulative IPC: 0.34681 (Simulation time: 1 hr 14 min 24 sec) 
Heartbeat CPU 2 instructions: 860000000 cycles: 576096148 heartbeat IPC: 1.10294 cumulative IPC: 1.07908 (Simulation time: 1 hr 14 min 50 sec) 
Heartbeat CPU 3 instructions: 360000000 cycles: 583768974 heartbeat IPC: 0.242109 cumulative IPC: 0.236207 (Simulation time: 1 hr 15 min 32 sec) 
Heartbeat CPU 2 instructions: 870000002 cycles: 585161083 heartbeat IPC: 1.10315 cumulative IPC: 1.07961 (Simulation time: 1 hr 15 min 40 sec) 
Heartbeat CPU 2 instructions: 880000000 cycles: 594223107 heartbeat IPC: 1.10351 cumulative IPC: 1.08012 (Simulation time: 1 hr 16 min 32 sec) 
Heartbeat CPU 1 instructions: 350000002 cycles: 596898665 heartbeat IPC: 0.393825 cumulative IPC: 0.349592 (Simulation time: 1 hr 16 min 46 sec) 
Heartbeat CPU 2 instructions: 890000000 cycles: 603303577 heartbeat IPC: 1.10126 cumulative IPC: 1.08056 (Simulation time: 1 hr 17 min 22 sec) 
Heartbeat CPU 2 instructions: 900000000 cycles: 612371929 heartbeat IPC: 1.10274 cumulative IPC: 1.08101 (Simulation time: 1 hr 18 min 14 sec) 
Heartbeat CPU 0 instructions: 440000000 cycles: 612667090 heartbeat IPC: 0.240375 cumulative IPC: 0.22327 (Simulation time: 1 hr 18 min 16 sec) 
Heartbeat CPU 2 instructions: 910000001 cycles: 621442500 heartbeat IPC: 1.10247 cumulative IPC: 1.08144 (Simulation time: 1 hr 19 min 3 sec) 
Heartbeat CPU 1 instructions: 360000000 cycles: 622311718 heartbeat IPC: 0.393498 cumulative IPC: 0.352047 (Simulation time: 1 hr 19 min 8 sec) 
Heartbeat CPU 3 instructions: 370000001 cycles: 625588140 heartbeat IPC: 0.239125 cumulative IPC: 0.236474 (Simulation time: 1 hr 19 min 26 sec) 
Heartbeat CPU 2 instructions: 920000000 cycles: 630505692 heartbeat IPC: 1.10336 cumulative IPC: 1.08187 (Simulation time: 1 hr 19 min 54 sec) 
Heartbeat CPU 2 instructions: 930000003 cycles: 640007774 heartbeat IPC: 1.0524 cumulative IPC: 1.08127 (Simulation time: 1 hr 20 min 47 sec) 
Heartbeat CPU 1 instructions: 370000003 cycles: 647727245 heartbeat IPC: 0.39346 cumulative IPC: 0.35424 (Simulation time: 1 hr 21 min 29 sec) 
Heartbeat CPU 2 instructions: 940000000 cycles: 649070577 heartbeat IPC: 1.10341 cumulative IPC: 1.08169 (Simulation time: 1 hr 21 min 37 sec) 
Heartbeat CPU 2 instructions: 950000002 cycles: 658202053 heartbeat IPC: 1.09511 cumulative IPC: 1.08194 (Simulation time: 1 hr 22 min 28 sec) 
Heartbeat CPU 0 instructions: 450000002 cycles: 661782262 heartbeat IPC: 0.203603 cumulative IPC: 0.221314 (Simulation time: 1 hr 22 min 47 sec) 
Heartbeat CPU 2 instructions: 960000000 cycles: 667270638 heartbeat IPC: 1.10271 cumulative IPC: 1.08232 (Simulation time: 1 hr 23 min 17 sec) 
Heartbeat CPU 3 instructions: 380000000 cycles: 668224402 heartbeat IPC: 0.234542 cumulative IPC: 0.236309 (Simulation time: 1 hr 23 min 23 sec) 
Heartbeat CPU 1 instructions: 380000000 cycles: 673188298 heartbeat IPC: 0.392757 cumulative IPC: 0.356181 (Simulation time: 1 hr 23 min 50 sec) 
Heartbeat CPU 2 instructions: 970000001 cycles: 676079176 heartbeat IPC: 1.13526 cumulative IPC: 1.08324 (Simulation time: 1 hr 24 min 6 sec) 
Heartbeat CPU 2 instructions: 980000000 cycles: 684853548 heartbeat IPC: 1.13968 cumulative IPC: 1.08419 (Simulation time: 1 hr 24 min 54 sec) 
Heartbeat CPU 2 instructions: 990000003 cycles: 693617811 heartbeat IPC: 1.141 cumulative IPC: 1.08514 (Simulation time: 1 hr 25 min 43 sec) 
Heartbeat CPU 1 instructions: 390000001 cycles: 698479327 heartbeat IPC: 0.395397 cumulative IPC: 0.35805 (Simulation time: 1 hr 26 min 12 sec) 
Heartbeat CPU 2 instructions: 1000000000 cycles: 702382132 heartbeat IPC: 1.14099 cumulative IPC: 1.08606 (Simulation time: 1 hr 26 min 33 sec) 
Heartbeat CPU 0 instructions: 460000000 cycles: 706678992 heartbeat IPC: 0.222733 cumulative IPC: 0.221432 (Simulation time: 1 hr 26 min 57 sec) 
Heartbeat CPU 3 instructions: 390000001 cycles: 711060388 heartbeat IPC: 0.233449 cumulative IPC: 0.236084 (Simulation time: 1 hr 27 min 21 sec) 
Heartbeat CPU 2 instructions: 1010000001 cycles: 712119140 heartbeat IPC: 1.02701 cumulative IPC: 1.085 (Simulation time: 1 hr 27 min 27 sec) 
Heartbeat CPU 2 instructions: 1020000000 cycles: 723246091 heartbeat IPC: 0.898719 cumulative IPC: 1.08127 (Simulation time: 1 hr 28 min 28 sec) 
Heartbeat CPU 1 instructions: 400000000 cycles: 724909882 heartbeat IPC: 0.37835 cumulative IPC: 0.359013 (Simulation time: 1 hr 28 min 37 sec) 
Heartbeat CPU 2 instructions: 1030000001 cycles: 731793440 heartbeat IPC: 1.16995 cumulative IPC: 1.08261 (Simulation time: 1 hr 29 min 16 sec) 
Heartbeat CPU 2 instructions: 1040000000 cycles: 740322576 heartbeat IPC: 1.17245 cumulative IPC: 1.08395 (Simulation time: 1 hr 30 min 5 sec) 
Heartbeat CPU 2 instructions: 1050000000 cycles: 748863383 heartbeat IPC: 1.17085 cumulative IPC: 1.08523 (Simulation time: 1 hr 30 min 53 sec) 
Heartbeat CPU 1 instructions: 410000003 cycles: 750317797 heartbeat IPC: 0.393578 cumulative IPC: 0.360521 (Simulation time: 1 hr 31 min 1 sec) 
Heartbeat CPU 0 instructions: 470000000 cycles: 753752054 heartbeat IPC: 0.212436 cumulative IPC: 0.22071 (Simulation time: 1 hr 31 min 20 sec) 
Heartbeat CPU 3 instructions: 400000000 cycles: 756381851 heartbeat IPC: 0.220646 cumulative IPC: 0.234895 (Simulation time: 1 hr 31 min 34 sec) 
Heartbeat CPU 2 instructions: 1060000000 cycles: 757730109 heartbeat IPC: 1.12781 cumulative IPC: 1.08587 (Simulation time: 1 hr 31 min 42 sec) 
Heartbeat CPU 2 instructions: 1070000002 cycles: 766801918 heartbeat IPC: 1.10232 cumulative IPC: 1.08612 (Simulation time: 1 hr 32 min 32 sec) 
Heartbeat CPU 1 instructions: 420000000 cycles: 775764471 heartbeat IPC: 0.392979 cumulative IPC: 0.361879 (Simulation time: 1 hr 33 min 20 sec) 
Heartbeat CPU 2 instructions: 1080000000 cycles: 776142746 heartbeat IPC: 1.07057 cumulative IPC: 1.08588 (Simulation time: 1 hr 33 min 22 sec) 
Heartbeat CPU 2 instructions: 1090000001 cycles: 785639346 heartbeat IPC: 1.05301 cumulative IPC: 1.08537 (Simulation time: 1 hr 34 min 13 sec) 
Heartbeat CPU 2 instructions: 1100000000 cycles: 794870477 heartbeat IPC: 1.08329 cumulative IPC: 1.08534 (Simulation time: 1 hr 35 min 5 sec) 
Heartbeat CPU 0 instructions: 480000000 cycles: 796754645 heartbeat IPC: 0.232544 cumulative IPC: 0.221519 (Simulation time: 1 hr 35 min 16 sec) 
Heartbeat CPU 1 instructions: 430000003 cycles: 801513741 heartbeat IPC: 0.388361 cumulative IPC: 0.362955 (Simulation time: 1 hr 35 min 42 sec) 
Heartbeat CPU 2 instructions: 1110000000 cycles: 803925285 heartbeat IPC: 1.10439 cumulative IPC: 1.08561 (Simulation time: 1 hr 35 min 55 sec) 
Heartbeat CPU 3 instructions: 410000003 cycles: 805986978 heartbeat IPC: 0.201592 cumulative IPC: 0.232306 (Simulation time: 1 hr 36 min 6 sec) 
Heartbeat CPU 2 instructions: 1120000000 cycles: 812894237 heartbeat IPC: 1.11496 cumulative IPC: 1.08602 (Simulation time: 1 hr 36 min 45 sec) 
Heartbeat CPU 2 instructions: 1130000002 cycles: 822251480 heartbeat IPC: 1.06869 cumulative IPC: 1.08577 (Simulation time: 1 hr 37 min 37 sec) 
Heartbeat CPU 1 instructions: 440000000 cycles: 826996807 heartbeat IPC: 0.392417 cumulative IPC: 0.364094 (Simulation time: 1 hr 38 min 4 sec) 
Heartbeat CPU 2 instructions: 1140000000 cycles: 831263891 heartbeat IPC: 1.10958 cumulative IPC: 1.0861 (Simulation time: 1 hr 38 min 27 sec) 
Heartbeat CPU 2 instructions: 1150000000 cycles: 840270812 heartbeat IPC: 1.11026 cumulative IPC: 1.08642 (Simulation time: 1 hr 39 min 17 sec) 
Heartbeat CPU 0 instructions: 490000000 cycles: 844872676 heartbeat IPC: 0.207822 cumulative IPC: 0.220545 (Simulation time: 1 hr 39 min 42 sec) 
Heartbeat CPU 3 instructions: 420000000 cycles: 847851354 heartbeat IPC: 0.238867 cumulative IPC: 0.23271 (Simulation time: 1 hr 39 min 59 sec) 
Heartbeat CPU 2 instructions: 1160000000 cycles: 849418659 heartbeat IPC: 1.09315 cumulative IPC: 1.08651 (Simulation time: 1 hr 40 min 8 sec) 
Heartbeat CPU 1 instructions: 450000002 cycles: 852454800 heartbeat IPC: 0.392804 cumulative IPC: 0.365162 (Simulation time: 1 hr 40 min 24 sec) 
Heartbeat CPU 2 instructions: 1170000001 cycles: 858433211 heartbeat IPC: 1.10932 cumulative IPC: 1.08681 (Simulation time: 1 hr 40 min 58 sec) 
Heartbeat CPU 2 instructions: 1180000000 cycles: 867580237 heartbeat IPC: 1.09325 cumulative IPC: 1.08689 (Simulation time: 1 hr 41 min 48 sec) 
Heartbeat CPU 2 instructions: 1190000002 cycles: 876602829 heartbeat IPC: 1.10833 cumulative IPC: 1.08717 (Simulation time: 1 hr 42 min 38 sec) 
Heartbeat CPU 1 instructions: 460000000 cycles: 877918731 heartbeat IPC: 0.392712 cumulative IPC: 0.36615 (Simulation time: 1 hr 42 min 46 sec) 
Heartbeat CPU 2 instructions: 1200000000 cycles: 885740300 heartbeat IPC: 1.09439 cumulative IPC: 1.08726 (Simulation time: 1 hr 43 min 29 sec) 
Heartbeat CPU 3 instructions: 430000001 cycles: 891241430 heartbeat IPC: 0.230467 cumulative IPC: 0.232576 (Simulation time: 1 hr 43 min 59 sec) 
Heartbeat CPU 0 instructions: 500000000 cycles: 891828204 heartbeat IPC: 0.212967 cumulative IPC: 0.220054 (Simulation time: 1 hr 44 min 3 sec) 
Heartbeat CPU 2 instructions: 1210000000 cycles: 894713397 heartbeat IPC: 1.11444 cumulative IPC: 1.08759 (Simulation time: 1 hr 44 min 19 sec) 
Heartbeat CPU 1 instructions: 470000003 cycles: 903467795 heartbeat IPC: 0.391404 cumulative IPC: 0.367027 (Simulation time: 1 hr 45 min 7 sec) 
Heartbeat CPU 2 instructions: 1220000000 cycles: 903727030 heartbeat IPC: 1.10943 cumulative IPC: 1.08786 (Simulation time: 1 hr 45 min 9 sec) 
Heartbeat CPU 2 instructions: 1230000001 cycles: 912881686 heartbeat IPC: 1.09234 cumulative IPC: 1.08792 (Simulation time: 1 hr 46 min 0 sec) 
Heartbeat CPU 2 instructions: 1240000000 cycles: 921893650 heartbeat IPC: 1.10964 cumulative IPC: 1.08818 (Simulation time: 1 hr 46 min 50 sec) 
Heartbeat CPU 1 instructions: 480000000 cycles: 928883743 heartbeat IPC: 0.393454 cumulative IPC: 0.36791 (Simulation time: 1 hr 47 min 28 sec) 
Heartbeat CPU 2 instructions: 1250000000 cycles: 931244939 heartbeat IPC: 1.06937 cumulative IPC: 1.08795 (Simulation time: 1 hr 47 min 41 sec) 
Heartbeat CPU 3 instructions: 440000000 cycles: 934242247 heartbeat IPC: 0.232554 cumulative IPC: 0.232574 (Simulation time: 1 hr 47 min 59 sec) 
Heartbeat CPU 0 instructions: 510000000 cycles: 936848935 heartbeat IPC: 0.22212 cumulative IPC: 0.220175 (Simulation time: 1 hr 48 min 13 sec) 
Heartbeat CPU 2 instructions: 1260000000 cycles: 940216892 heartbeat IPC: 1.11458 cumulative IPC: 1.08825 (Simulation time: 1 hr 48 min 31 sec) 
Heartbeat CPU 2 instructions: 1270000002 cycles: 949199392 heartbeat IPC: 1.11328 cumulative IPC: 1.08854 (Simulation time: 1 hr 49 min 22 sec) 
Heartbeat CPU 1 instructions: 490000002 cycles: 954432839 heartbeat IPC: 0.391403 cumulative IPC: 0.368673 (Simulation time: 1 hr 49 min 51 sec) 
Heartbeat CPU 2 instructions: 1280000000 cycles: 958525653 heartbeat IPC: 1.07224 cumulative IPC: 1.08835 (Simulation time: 1 hr 50 min 14 sec) 
Heartbeat CPU 2 instructions: 1290000002 cycles: 967711720 heartbeat IPC: 1.08861 cumulative IPC: 1.08835 (Simulation time: 1 hr 51 min 5 sec) 
Heartbeat CPU 2 instructions: 1300000000 cycles: 977021434 heartbeat IPC: 1.07415 cumulative IPC: 1.08819 (Simulation time: 1 hr 51 min 57 sec) 
Heartbeat CPU 3 instructions: 450000001 cycles: 977361540 heartbeat IPC: 0.231915 cumulative IPC: 0.232539 (Simulation time: 1 hr 51 min 59 sec) 
Heartbeat CPU 1 instructions: 500000000 cycles: 979859932 heartbeat IPC: 0.393281 cumulative IPC: 0.369443 (Simulation time: 1 hr 52 min 13 sec) 
Heartbeat CPU 2 instructions: 1310000002 cycles: 985917807 heartbeat IPC: 1.12405 cumulative IPC: 1.08858 (Simulation time: 1 hr 52 min 46 sec) 
Heartbeat CPU 0 instructions: 520000000 cycles: 986561276 heartbeat IPC: 0.201157 cumulative IPC: 0.21902 (Simulation time: 1 hr 52 min 50 sec) 
Heartbeat CPU 2 instructions: 1320000000 cycles: 994826477 heartbeat IPC: 1.1225 cumulative IPC: 1.08895 (Simulation time: 1 hr 53 min 36 sec) 
Heartbeat CPU 2 instructions: 1330000000 cycles: 1003377228 heartbeat IPC: 1.16949 cumulative IPC: 1.08977 (Simulation time: 1 hr 54 min 25 sec) 
Heartbeat CPU 1 instructions: 510000003 cycles: 1005331486 heartbeat IPC: 0.392595 cumulative IPC: 0.370147 (Simulation time: 1 hr 54 min 35 sec) 
Heartbeat CPU 2 instructions: 1340000000 cycles: 1011902314 heartbeat IPC: 1.17301 cumulative IPC: 1.09061 (Simulation time: 1 hr 55 min 12 sec) 
Heartbeat CPU 3 instructions: 460000000 cycles: 1020074413 heartbeat IPC: 0.234121 cumulative IPC: 0.232619 (Simulation time: 1 hr 55 min 59 sec) 
Heartbeat CPU 2 instructions: 1350000000 cycles: 1020445406 heartbeat IPC: 1.17054 cumulative IPC: 1.09141 (Simulation time: 1 hr 56 min 1 sec) 
Heartbeat CPU 2 instructions: 1360000000 cycles: 1030518048 heartbeat IPC: 0.992788 cumulative IPC: 1.09026 (Simulation time: 1 hr 56 min 58 sec) 
Heartbeat CPU 1 instructions: 520000000 cycles: 1031008301 heartbeat IPC: 0.389456 cumulative IPC: 0.370722 (Simulation time: 1 hr 57 min 0 sec) 
Heartbeat CPU 0 instructions: 530000003 cycles: 1034739606 heartbeat IPC: 0.207562 cumulative IPC: 0.218383 (Simulation time: 1 hr 57 min 21 sec) 
Heartbeat CPU 2 instructions: 1370000003 cycles: 1041212817 heartbeat IPC: 0.935037 cumulative IPC: 1.08836 (Simulation time: 1 hr 57 min 57 sec) 
Heartbeat CPU 2 instructions: 1380000000 cycles: 1050021760 heartbeat IPC: 1.13521 cumulative IPC: 1.08883 (Simulation time: 1 hr 58 min 46 sec) 
Heartbeat CPU 1 instructions: 530000001 cycles: 1057100369 heartbeat IPC: 0.383258 cumulative IPC: 0.37109 (Simulation time: 1 hr 59 min 26 sec) 
Heartbeat CPU 2 instructions: 1390000003 cycles: 1058826071 heartbeat IPC: 1.13581 cumulative IPC: 1.08929 (Simulation time: 1 hr 59 min 35 sec) 
Heartbeat CPU 3 instructions: 470000000 cycles: 1063677147 heartbeat IPC: 0.229343 cumulative IPC: 0.232459 (Simulation time: 2 hr 0 min 2 sec) 
Heartbeat CPU 2 instructions: 1400000000 cycles: 1067637054 heartbeat IPC: 1.13495 cumulative IPC: 1.08974 (Simulation time: 2 hr 0 min 26 sec) 
Heartbeat CPU 2 instructions: 1410000001 cycles: 1076461042 heartbeat IPC: 1.13327 cumulative IPC: 1.09016 (Simulation time: 2 hr 1 min 15 sec) 
Heartbeat CPU 0 instructions: 540000000 cycles: 1077802583 heartbeat IPC: 0.232218 cumulative IPC: 0.219038 (Simulation time: 2 hr 1 min 23 sec) 
Heartbeat CPU 1 instructions: 540000000 cycles: 1082430051 heartbeat IPC: 0.394794 cumulative IPC: 0.371746 (Simulation time: 2 hr 1 min 51 sec) 
Finished CPU 2 instructions: 1000000000 cycles: 916914034 cumulative IPC: 1.09061 (Simulation time: 2 hr 2 min 3 sec) 
Heartbeat CPU 2 instructions: 1420000000 cycles: 1085238006 heartbeat IPC: 1.13935 cumulative IPC: 1.09063 (Simulation time: 2 hr 2 min 6 sec) 
Heartbeat CPU 2 instructions: 1430000001 cycles: 1094009368 heartbeat IPC: 1.14007 cumulative IPC: 1.0911 (Simulation time: 2 hr 2 min 55 sec) 
Heartbeat CPU 2 instructions: 1440000000 cycles: 1102757031 heartbeat IPC: 1.14316 cumulative IPC: 1.09159 (Simulation time: 2 hr 3 min 44 sec) 
Heartbeat CPU 3 instructions: 480000000 cycles: 1105970764 heartbeat IPC: 0.236442 cumulative IPC: 0.232639 (Simulation time: 2 hr 4 min 2 sec) 
Heartbeat CPU 1 instructions: 550000000 cycles: 1107799399 heartbeat IPC: 0.394176 cumulative IPC: 0.372351 (Simulation time: 2 hr 4 min 11 sec) 
Heartbeat CPU 2 instructions: 1450000002 cycles: 1111987922 heartbeat IPC: 1.08332 cumulative IPC: 1.09151 (Simulation time: 2 hr 4 min 35 sec) 
Heartbeat CPU 0 instructions: 550000002 cycles: 1120847936 heartbeat IPC: 0.232313 cumulative IPC: 0.219638 (Simulation time: 2 hr 5 min 24 sec) 
Heartbeat CPU 2 instructions: 1460000000 cycles: 1121167668 heartbeat IPC: 1.08935 cumulative IPC: 1.09148 (Simulation time: 2 hr 5 min 26 sec) 
Heartbeat CPU 2 instructions: 1470000000 cycles: 1130363399 heartbeat IPC: 1.08746 cumulative IPC: 1.09145 (Simulation time: 2 hr 6 min 17 sec) 
Heartbeat CPU 1 instructions: 560000000 cycles: 1133135665 heartbeat IPC: 0.394691 cumulative IPC: 0.372938 (Simulation time: 2 hr 6 min 34 sec) 
Heartbeat CPU 2 instructions: 1480000000 cycles: 1139990968 heartbeat IPC: 1.03868 cumulative IPC: 1.09092 (Simulation time: 2 hr 7 min 13 sec) 
Heartbeat CPU 2 instructions: 1490000000 cycles: 1148955901 heartbeat IPC: 1.11546 cumulative IPC: 1.09115 (Simulation time: 2 hr 8 min 4 sec) 
Heartbeat CPU 3 instructions: 490000001 cycles: 1149530009 heartbeat IPC: 0.229572 cumulative IPC: 0.232503 (Simulation time: 2 hr 8 min 7 sec) 
Heartbeat CPU 2 instructions: 1500000000 cycles: 1158139314 heartbeat IPC: 1.08892 cumulative IPC: 1.09113 (Simulation time: 2 hr 8 min 54 sec) 
Heartbeat CPU 1 instructions: 570000000 cycles: 1158532479 heartbeat IPC: 0.39375 cumulative IPC: 0.373471 (Simulation time: 2 hr 8 min 56 sec) 
Heartbeat CPU 0 instructions: 560000000 cycles: 1162529710 heartbeat IPC: 0.239913 cumulative IPC: 0.220487 (Simulation time: 2 hr 9 min 20 sec) 
Heartbeat CPU 2 instructions: 1510000000 cycles: 1167194400 heartbeat IPC: 1.10435 cumulative IPC: 1.09125 (Simulation time: 2 hr 9 min 46 sec) 
Heartbeat CPU 2 instructions: 1520000000 cycles: 1176278825 heartbeat IPC: 1.10079 cumulative IPC: 1.09133 (Simulation time: 2 hr 10 min 36 sec) 
Heartbeat CPU 1 instructions: 580000000 cycles: 1183873362 heartbeat IPC: 0.394619 cumulative IPC: 0.373999 (Simulation time: 2 hr 11 min 18 sec) 
Heartbeat CPU 2 instructions: 1530000000 cycles: 1185267693 heartbeat IPC: 1.11249 cumulative IPC: 1.09152 (Simulation time: 2 hr 11 min 27 sec) 
Heartbeat CPU 3 instructions: 500000000 cycles: 1191976361 heartbeat IPC: 0.235591 cumulative IPC: 0.232631 (Simulation time: 2 hr 12 min 4 sec) 
Heartbeat CPU 2 instructions: 1540000000 cycles: 1194317294 heartbeat IPC: 1.10502 cumulative IPC: 1.09164 (Simulation time: 2 hr 12 min 17 sec) 
Heartbeat CPU 2 instructions: 1550000000 cycles: 1203334838 heartbeat IPC: 1.10895 cumulative IPC: 1.09179 (Simulation time: 2 hr 13 min 7 sec) 
Heartbeat CPU 0 instructions: 570000002 cycles: 1207197754 heartbeat IPC: 0.223874 cumulative IPC: 0.220633 (Simulation time: 2 hr 13 min 28 sec) 
Heartbeat CPU 1 instructions: 590000003 cycles: 1209199113 heartbeat IPC: 0.394855 cumulative IPC: 0.374506 (Simulation time: 2 hr 13 min 39 sec) 
Heartbeat CPU 2 instructions: 1560000000 cycles: 1212352994 heartbeat IPC: 1.10887 cumulative IPC: 1.09194 (Simulation time: 2 hr 13 min 58 sec) 
Heartbeat CPU 2 instructions: 1570000002 cycles: 1221392409 heartbeat IPC: 1.10627 cumulative IPC: 1.09206 (Simulation time: 2 hr 14 min 48 sec) 
Heartbeat CPU 2 instructions: 1580000000 cycles: 1230400055 heartbeat IPC: 1.11017 cumulative IPC: 1.09221 (Simulation time: 2 hr 15 min 38 sec) 
Heartbeat CPU 1 instructions: 600000000 cycles: 1234653864 heartbeat IPC: 0.392854 cumulative IPC: 0.374944 (Simulation time: 2 hr 16 min 2 sec) 
Heartbeat CPU 3 instructions: 510000000 cycles: 1235151792 heartbeat IPC: 0.231613 cumulative IPC: 0.23259 (Simulation time: 2 hr 16 min 5 sec) 
Heartbeat CPU 2 instructions: 1590000001 cycles: 1239458399 heartbeat IPC: 1.10395 cumulative IPC: 1.09231 (Simulation time: 2 hr 16 min 28 sec) 
Heartbeat CPU 2 instructions: 1600000000 cycles: 1248437115 heartbeat IPC: 1.11374 cumulative IPC: 1.09249 (Simulation time: 2 hr 17 min 19 sec) 
Heartbeat CPU 0 instructions: 580000000 cycles: 1250796470 heartbeat IPC: 0.229365 cumulative IPC: 0.220984 (Simulation time: 2 hr 17 min 33 sec) 
Heartbeat CPU 2 instructions: 1610000000 cycles: 1257497860 heartbeat IPC: 1.10366 cumulative IPC: 1.09258 (Simulation time: 2 hr 18 min 12 sec) 
Heartbeat CPU 1 instructions: 610000000 cycles: 1258859993 heartbeat IPC: 0.413119 cumulative IPC: 0.375791 (Simulation time: 2 hr 18 min 20 sec) 
Heartbeat CPU 2 instructions: 1620000000 cycles: 1266477699 heartbeat IPC: 1.11361 cumulative IPC: 1.09276 (Simulation time: 2 hr 19 min 5 sec) 
Heartbeat CPU 2 instructions: 1630000002 cycles: 1275563110 heartbeat IPC: 1.10067 cumulative IPC: 1.09282 (Simulation time: 2 hr 19 min 59 sec) 
Heartbeat CPU 3 instructions: 520000000 cycles: 1276768597 heartbeat IPC: 0.240288 cumulative IPC: 0.232878 (Simulation time: 2 hr 20 min 6 sec) 
Heartbeat CPU 1 instructions: 620000000 cycles: 1280110085 heartbeat IPC: 0.470586 cumulative IPC: 0.377602 (Simulation time: 2 hr 20 min 25 sec) 
Heartbeat CPU 2 instructions: 1640000000 cycles: 1284514178 heartbeat IPC: 1.11718 cumulative IPC: 1.09302 (Simulation time: 2 hr 20 min 52 sec) 
Heartbeat CPU 2 instructions: 1650000000 cycles: 1293609633 heartbeat IPC: 1.09945 cumulative IPC: 1.09307 (Simulation time: 2 hr 21 min 45 sec) 
Heartbeat CPU 0 instructions: 590000002 cycles: 1294643149 heartbeat IPC: 0.228067 cumulative IPC: 0.22126 (Simulation time: 2 hr 21 min 51 sec) 
Heartbeat CPU 1 instructions: 630000001 cycles: 1301442031 heartbeat IPC: 0.468781 cumulative IPC: 0.379318 (Simulation time: 2 hr 22 min 31 sec) 
Heartbeat CPU 2 instructions: 1660000000 cycles: 1302586528 heartbeat IPC: 1.11397 cumulative IPC: 1.09323 (Simulation time: 2 hr 22 min 38 sec) 
Heartbeat CPU 2 instructions: 1670000002 cycles: 1311617329 heartbeat IPC: 1.10732 cumulative IPC: 1.09334 (Simulation time: 2 hr 23 min 30 sec) 
Heartbeat CPU 3 instructions: 530000000 cycles: 1318599036 heartbeat IPC: 0.23906 cumulative IPC: 0.233103 (Simulation time: 2 hr 24 min 10 sec) 
Heartbeat CPU 2 instructions: 1680000000 cycles: 1320606765 heartbeat IPC: 1.11242 cumulative IPC: 1.09349 (Simulation time: 2 hr 24 min 22 sec) 
Heartbeat CPU 1 instructions: 640000000 cycles: 1322515145 heartbeat IPC: 0.474538 cumulative IPC: 0.381055 (Simulation time: 2 hr 24 min 35 sec) 
Heartbeat CPU 2 instructions: 1690000003 cycles: 1330504456 heartbeat IPC: 1.01034 cumulative IPC: 1.09279 (Simulation time: 2 hr 25 min 21 sec) 
Heartbeat CPU 0 instructions: 600000000 cycles: 1338071962 heartbeat IPC: 0.230262 cumulative IPC: 0.221594 (Simulation time: 2 hr 26 min 6 sec) 
Heartbeat CPU 2 instructions: 1700000000 cycles: 1339793991 heartbeat IPC: 1.07648 cumulative IPC: 1.09266 (Simulation time: 2 hr 26 min 17 sec) 
Heartbeat CPU 1 instructions: 650000002 cycles: 1343992673 heartbeat IPC: 0.465603 cumulative IPC: 0.382599 (Simulation time: 2 hr 26 min 41 sec) 
Heartbeat CPU 2 instructions: 1710000003 cycles: 1348745226 heartbeat IPC: 1.11716 cumulative IPC: 1.09284 (Simulation time: 2 hr 27 min 9 sec) 
Heartbeat CPU 2 instructions: 1720000000 cycles: 1357561383 heartbeat IPC: 1.13428 cumulative IPC: 1.09315 (Simulation time: 2 hr 28 min 1 sec) 
Heartbeat CPU 3 instructions: 540000000 cycles: 1360007636 heartbeat IPC: 0.241496 cumulative IPC: 0.233395 (Simulation time: 2 hr 28 min 16 sec) 
Heartbeat CPU 1 instructions: 660000000 cycles: 1365162549 heartbeat IPC: 0.472369 cumulative IPC: 0.384186 (Simulation time: 2 hr 28 min 46 sec) 
Heartbeat CPU 2 instructions: 1730000000 cycles: 1366327787 heartbeat IPC: 1.14072 cumulative IPC: 1.0935 (Simulation time: 2 hr 28 min 54 sec) 
Heartbeat CPU 2 instructions: 1740000000 cycles: 1375084743 heartbeat IPC: 1.14195 cumulative IPC: 1.09385 (Simulation time: 2 hr 29 min 46 sec) 
Heartbeat CPU 0 instructions: 610000002 cycles: 1382328653 heartbeat IPC: 0.225955 cumulative IPC: 0.221753 (Simulation time: 2 hr 30 min 29 sec) 
Heartbeat CPU 2 instructions: 1750000001 cycles: 1383913670 heartbeat IPC: 1.13264 cumulative IPC: 1.09413 (Simulation time: 2 hr 30 min 39 sec) 
Heartbeat CPU 1 instructions: 670000002 cycles: 1386281860 heartbeat IPC: 0.4735 cumulative IPC: 0.385734 (Simulation time: 2 hr 30 min 52 sec) 
Heartbeat CPU 2 instructions: 1760000000 cycles: 1392716139 heartbeat IPC: 1.13604 cumulative IPC: 1.09443 (Simulation time: 2 hr 31 min 30 sec) 
Heartbeat CPU 3 instructions: 550000000 cycles: 1401218019 heartbeat IPC: 0.242657 cumulative IPC: 0.233704 (Simulation time: 2 hr 32 min 18 sec) 
Heartbeat CPU 2 instructions: 1770000001 cycles: 1401537916 heartbeat IPC: 1.13356 cumulative IPC: 1.09471 (Simulation time: 2 hr 32 min 20 sec) 
Heartbeat CPU 1 instructions: 680000000 cycles: 1407841614 heartbeat IPC: 0.463827 cumulative IPC: 0.387092 (Simulation time: 2 hr 32 min 57 sec) 
Heartbeat CPU 2 instructions: 1780000000 cycles: 1410346741 heartbeat IPC: 1.13523 cumulative IPC: 1.095 (Simulation time: 2 hr 33 min 10 sec) 
Heartbeat CPU 2 instructions: 1790000001 cycles: 1422365882 heartbeat IPC: 0.832006 cumulative IPC: 1.09248 (Simulation time: 2 hr 34 min 21 sec) 
Heartbeat CPU 0 instructions: 620000000 cycles: 1426734455 heartbeat IPC: 0.225196 cumulative IPC: 0.221874 (Simulation time: 2 hr 34 min 48 sec) 
Heartbeat CPU 1 instructions: 690000003 cycles: 1429930107 heartbeat IPC: 0.452725 cumulative IPC: 0.388241 (Simulation time: 2 hr 35 min 6 sec) 
Heartbeat CPU 2 instructions: 1800000000 cycles: 1431272692 heartbeat IPC: 1.12274 cumulative IPC: 1.09269 (Simulation time: 2 hr 35 min 14 sec) 
Heartbeat CPU 2 instructions: 1810000001 cycles: 1440526054 heartbeat IPC: 1.08069 cumulative IPC: 1.0926 (Simulation time: 2 hr 36 min 9 sec) 
Heartbeat CPU 3 instructions: 560000000 cycles: 1442683024 heartbeat IPC: 0.241167 cumulative IPC: 0.233947 (Simulation time: 2 hr 36 min 21 sec) 
Heartbeat CPU 1 instructions: 700000000 cycles: 1449738484 heartbeat IPC: 0.504837 cumulative IPC: 0.390043 (Simulation time: 2 hr 37 min 6 sec) 
Heartbeat CPU 2 instructions: 1820000000 cycles: 1450041927 heartbeat IPC: 1.05088 cumulative IPC: 1.0923 (Simulation time: 2 hr 37 min 8 sec) 
Heartbeat CPU 2 instructions: 1830000001 cycles: 1459257663 heartbeat IPC: 1.0851 cumulative IPC: 1.09224 (Simulation time: 2 hr 38 min 3 sec) 
Heartbeat CPU 0 instructions: 630000000 cycles: 1467418753 heartbeat IPC: 0.245795 cumulative IPC: 0.222623 (Simulation time: 2 hr 38 min 53 sec) 
Heartbeat CPU 2 instructions: 1840000000 cycles: 1469105459 heartbeat IPC: 1.01546 cumulative IPC: 1.09166 (Simulation time: 2 hr 39 min 3 sec) 
Heartbeat CPU 1 instructions: 710000003 cycles: 1469529948 heartbeat IPC: 0.505268 cumulative IPC: 0.391795 (Simulation time: 2 hr 39 min 6 sec) 
Heartbeat CPU 2 instructions: 1850000000 cycles: 1478760648 heartbeat IPC: 1.03571 cumulative IPC: 1.09125 (Simulation time: 2 hr 40 min 1 sec) 
Heartbeat CPU 3 instructions: 570000001 cycles: 1482849288 heartbeat IPC: 0.248965 cumulative IPC: 0.234406 (Simulation time: 2 hr 40 min 25 sec) 
Heartbeat CPU 2 instructions: 1860000000 cycles: 1488379446 heartbeat IPC: 1.03963 cumulative IPC: 1.09087 (Simulation time: 2 hr 40 min 58 sec) 
Heartbeat CPU 1 instructions: 720000000 cycles: 1489472442 heartbeat IPC: 0.501442 cumulative IPC: 0.393449 (Simulation time: 2 hr 41 min 4 sec) 
Heartbeat CPU 2 instructions: 1870000003 cycles: 1497906694 heartbeat IPC: 1.04962 cumulative IPC: 1.09058 (Simulation time: 2 hr 41 min 54 sec) 
Heartbeat CPU 2 instructions: 1880000000 cycles: 1507523926 heartbeat IPC: 1.0398 cumulative IPC: 1.09021 (Simulation time: 2 hr 42 min 53 sec) 
Heartbeat CPU 1 instructions: 730000000 cycles: 1509356327 heartbeat IPC: 0.50292 cumulative IPC: 0.395072 (Simulation time: 2 hr 43 min 3 sec) 
Heartbeat CPU 0 instructions: 640000000 cycles: 1510368849 heartbeat IPC: 0.232828 cumulative IPC: 0.22295 (Simulation time: 2 hr 43 min 9 sec) 
Heartbeat CPU 2 instructions: 1890000002 cycles: 1517186852 heartbeat IPC: 1.03488 cumulative IPC: 1.08982 (Simulation time: 2 hr 43 min 48 sec) 
Heartbeat CPU 2 instructions: 1900000000 cycles: 1526729096 heartbeat IPC: 1.04797 cumulative IPC: 1.08952 (Simulation time: 2 hr 44 min 42 sec) 
Heartbeat CPU 1 instructions: 740000000 cycles: 1530038123 heartbeat IPC: 0.483517 cumulative IPC: 0.396414 (Simulation time: 2 hr 45 min 1 sec) 
Heartbeat CPU 3 instructions: 580000000 cycles: 1530104681 heartbeat IPC: 0.211616 cumulative IPC: 0.233615 (Simulation time: 2 hr 45 min 2 sec) 
Heartbeat CPU 2 instructions: 1910000000 cycles: 1536165587 heartbeat IPC: 1.05972 cumulative IPC: 1.08932 (Simulation time: 2 hr 45 min 37 sec) 
Heartbeat CPU 2 instructions: 1920000000 cycles: 1545830334 heartbeat IPC: 1.03469 cumulative IPC: 1.08894 (Simulation time: 2 hr 46 min 35 sec) 
Heartbeat CPU 1 instructions: 750000002 cycles: 1549962028 heartbeat IPC: 0.50191 cumulative IPC: 0.397935 (Simulation time: 2 hr 47 min 0 sec) 
Heartbeat CPU 2 instructions: 1930000003 cycles: 1555170626 heartbeat IPC: 1.07063 cumulative IPC: 1.08881 (Simulation time: 2 hr 47 min 31 sec) 
Heartbeat CPU 0 instructions: 650000001 cycles: 1555950904 heartbeat IPC: 0.219385 cumulative IPC: 0.222833 (Simulation time: 2 hr 47 min 36 sec) 
Heartbeat CPU 2 instructions: 1940000000 cycles: 1564458113 heartbeat IPC: 1.07672 cumulative IPC: 1.08873 (Simulation time: 2 hr 48 min 26 sec) 
Heartbeat CPU 1 instructions: 760000000 cycles: 1569759881 heartbeat IPC: 0.505105 cumulative IPC: 0.399449 (Simulation time: 2 hr 48 min 58 sec) 
Heartbeat CPU 3 instructions: 590000000 cycles: 1570158555 heartbeat IPC: 0.249664 cumulative IPC: 0.234073 (Simulation time: 2 hr 49 min 0 sec) 
Heartbeat CPU 2 instructions: 1950000000 cycles: 1573306308 heartbeat IPC: 1.13017 cumulative IPC: 1.08899 (Simulation time: 2 hr 49 min 18 sec) 
Heartbeat CPU 2 instructions: 1960000000 cycles: 1584542667 heartbeat IPC: 0.889968 cumulative IPC: 1.08741 (Simulation time: 2 hr 50 min 27 sec) 
Heartbeat CPU 1 instructions: 770000000 cycles: 1590646659 heartbeat IPC: 0.478772 cumulative IPC: 0.400613 (Simulation time: 2 hr 51 min 2 sec) 
Heartbeat CPU 0 instructions: 660000000 cycles: 1593620995 heartbeat IPC: 0.265463 cumulative IPC: 0.223959 (Simulation time: 2 hr 51 min 19 sec) 
Heartbeat CPU 2 instructions: 1970000000 cycles: 1594171077 heartbeat IPC: 1.03859 cumulative IPC: 1.08708 (Simulation time: 2 hr 51 min 22 sec) 
Heartbeat CPU 2 instructions: 1980000000 cycles: 1603078926 heartbeat IPC: 1.12261 cumulative IPC: 1.08731 (Simulation time: 2 hr 52 min 12 sec) 
Heartbeat CPU 3 instructions: 600000000 cycles: 1611041186 heartbeat IPC: 0.244603 cumulative IPC: 0.234372 (Simulation time: 2 hr 53 min 1 sec) 
Heartbeat CPU 2 instructions: 1990000000 cycles: 1612064199 heartbeat IPC: 1.11293 cumulative IPC: 1.08746 (Simulation time: 2 hr 53 min 7 sec) 
Heartbeat CPU 1 instructions: 780000000 cycles: 1613433556 heartbeat IPC: 0.438849 cumulative IPC: 0.401216 (Simulation time: 2 hr 53 min 14 sec) 
*** Reached end of trace for Core: 2 Repeating trace: /home/ubuntu/PPF_Paper_Source_Code-master/traces/603.bwaves_s-1080B.champsimtrace.xz
Heartbeat CPU 2 instructions: 2000000000 cycles: 1621676532 heartbeat IPC: 1.04033 cumulative IPC: 1.08715 (Simulation time: 2 hr 54 min 4 sec) 
Heartbeat CPU 2 instructions: 2010000003 cycles: 1632013140 heartbeat IPC: 0.967436 cumulative IPC: 1.08631 (Simulation time: 2 hr 55 min 3 sec) 
Heartbeat CPU 1 instructions: 790000001 cycles: 1637052717 heartbeat IPC: 0.423385 cumulative IPC: 0.401572 (Simulation time: 2 hr 55 min 31 sec) 
Heartbeat CPU 0 instructions: 670000003 cycles: 1638734849 heartbeat IPC: 0.221661 cumulative IPC: 0.223888 (Simulation time: 2 hr 55 min 41 sec) 
Heartbeat CPU 2 instructions: 2020000000 cycles: 1643188343 heartbeat IPC: 0.894838 cumulative IPC: 1.08486 (Simulation time: 2 hr 56 min 6 sec) 
Heartbeat CPU 2 instructions: 2030000001 cycles: 1651715152 heartbeat IPC: 1.17277 cumulative IPC: 1.08536 (Simulation time: 2 hr 56 min 55 sec) 
Heartbeat CPU 3 instructions: 610000000 cycles: 1652360570 heartbeat IPC: 0.242017 cumulative IPC: 0.234585 (Simulation time: 2 hr 56 min 58 sec) 
Heartbeat CPU 2 instructions: 2040000000 cycles: 1660256212 heartbeat IPC: 1.17081 cumulative IPC: 1.08585 (Simulation time: 2 hr 57 min 45 sec) 
Heartbeat CPU 1 instructions: 800000000 cycles: 1661125198 heartbeat IPC: 0.415412 cumulative IPC: 0.401795 (Simulation time: 2 hr 57 min 50 sec) 
Heartbeat CPU 2 instructions: 2050000000 cycles: 1668880383 heartbeat IPC: 1.15953 cumulative IPC: 1.08628 (Simulation time: 2 hr 58 min 35 sec) 
Heartbeat CPU 2 instructions: 2060000000 cycles: 1677710726 heartbeat IPC: 1.13246 cumulative IPC: 1.08655 (Simulation time: 2 hr 59 min 25 sec) 
Heartbeat CPU 0 instructions: 680000000 cycles: 1684395643 heartbeat IPC: 0.219006 cumulative IPC: 0.223741 (Simulation time: 3 hr 0 min 5 sec) 
Heartbeat CPU 1 instructions: 810000000 cycles: 1684419579 heartbeat IPC: 0.429288 cumulative IPC: 0.402218 (Simulation time: 3 hr 0 min 5 sec) 
Heartbeat CPU 2 instructions: 2070000000 cycles: 1686516290 heartbeat IPC: 1.13565 cumulative IPC: 1.08683 (Simulation time: 3 hr 0 min 17 sec) 
Heartbeat CPU 3 instructions: 620000000 cycles: 1692106253 heartbeat IPC: 0.2516 cumulative IPC: 0.235028 (Simulation time: 3 hr 0 min 49 sec) 
Heartbeat CPU 2 instructions: 2080000000 cycles: 1695344018 heartbeat IPC: 1.13279 cumulative IPC: 1.0871 (Simulation time: 3 hr 1 min 8 sec) 
Heartbeat CPU 2 instructions: 2090000000 cycles: 1704197510 heartbeat IPC: 1.1295 cumulative IPC: 1.08734 (Simulation time: 3 hr 1 min 59 sec) 
Heartbeat CPU 1 instructions: 820000000 cycles: 1707494889 heartbeat IPC: 0.433364 cumulative IPC: 0.402684 (Simulation time: 3 hr 2 min 17 sec) 
Heartbeat CPU 2 instructions: 2100000000 cycles: 1713058360 heartbeat IPC: 1.12856 cumulative IPC: 1.08758 (Simulation time: 3 hr 2 min 49 sec) 
Heartbeat CPU 2 instructions: 2110000001 cycles: 1721867271 heartbeat IPC: 1.13521 cumulative IPC: 1.08785 (Simulation time: 3 hr 3 min 42 sec) 
Heartbeat CPU 0 instructions: 690000000 cycles: 1729131905 heartbeat IPC: 0.223532 cumulative IPC: 0.223735 (Simulation time: 3 hr 4 min 25 sec) 
Heartbeat CPU 1 instructions: 830000003 cycles: 1730365398 heartbeat IPC: 0.437244 cumulative IPC: 0.40319 (Simulation time: 3 hr 4 min 32 sec) 
Heartbeat CPU 2 instructions: 2120000000 cycles: 1730634635 heartbeat IPC: 1.14059 cumulative IPC: 1.08814 (Simulation time: 3 hr 4 min 33 sec) 
Heartbeat CPU 3 instructions: 630000002 cycles: 1732115493 heartbeat IPC: 0.249942 cumulative IPC: 0.23541 (Simulation time: 3 hr 4 min 43 sec) 
Heartbeat CPU 2 instructions: 2130000000 cycles: 1739391174 heartbeat IPC: 1.142 cumulative IPC: 1.08844 (Simulation time: 3 hr 5 min 26 sec) 
Heartbeat CPU 2 instructions: 2140000000 cycles: 1748148855 heartbeat IPC: 1.14185 cumulative IPC: 1.08874 (Simulation time: 3 hr 6 min 17 sec) 
Heartbeat CPU 1 instructions: 840000000 cycles: 1753162979 heartbeat IPC: 0.438643 cumulative IPC: 0.4037 (Simulation time: 3 hr 6 min 47 sec) 
Heartbeat CPU 2 instructions: 2150000002 cycles: 1756981487 heartbeat IPC: 1.13217 cumulative IPC: 1.08898 (Simulation time: 3 hr 7 min 8 sec) 
Heartbeat CPU 2 instructions: 2160000000 cycles: 1765814836 heartbeat IPC: 1.13207 cumulative IPC: 1.08922 (Simulation time: 3 hr 7 min 59 sec) 
Heartbeat CPU 3 instructions: 640000000 cycles: 1771674690 heartbeat IPC: 0.252786 cumulative IPC: 0.235838 (Simulation time: 3 hr 8 min 33 sec) 
Heartbeat CPU 0 instructions: 700000000 cycles: 1772735334 heartbeat IPC: 0.22934 cumulative IPC: 0.223888 (Simulation time: 3 hr 8 min 40 sec) 
Heartbeat CPU 2 instructions: 2170000002 cycles: 1774704690 heartbeat IPC: 1.12488 cumulative IPC: 1.08942 (Simulation time: 3 hr 8 min 53 sec) 
Heartbeat CPU 1 instructions: 850000003 cycles: 1775811388 heartbeat IPC: 0.441532 cumulative IPC: 0.404233 (Simulation time: 3 hr 8 min 59 sec) 
Heartbeat CPU 2 instructions: 2180000000 cycles: 1783525374 heartbeat IPC: 1.1337 cumulative IPC: 1.08966 (Simulation time: 3 hr 9 min 44 sec) 
Heartbeat CPU 2 instructions: 2190000001 cycles: 1792400430 heartbeat IPC: 1.12675 cumulative IPC: 1.08986 (Simulation time: 3 hr 10 min 36 sec) 
Heartbeat CPU 1 instructions: 860000000 cycles: 1798954748 heartbeat IPC: 0.432089 cumulative IPC: 0.404628 (Simulation time: 3 hr 11 min 13 sec) 
Heartbeat CPU 2 instructions: 2200000000 cycles: 1801282993 heartbeat IPC: 1.1258 cumulative IPC: 1.09006 (Simulation time: 3 hr 11 min 26 sec) 
Heartbeat CPU 2 instructions: 2210000003 cycles: 1810124152 heartbeat IPC: 1.13107 cumulative IPC: 1.09028 (Simulation time: 3 hr 12 min 17 sec) 
Heartbeat CPU 3 instructions: 650000000 cycles: 1810980972 heartbeat IPC: 0.254412 cumulative IPC: 0.236283 (Simulation time: 3 hr 12 min 22 sec) 
Heartbeat CPU 0 instructions: 710000001 cycles: 1813451152 heartbeat IPC: 0.245605 cumulative IPC: 0.224425 (Simulation time: 3 hr 12 min 36 sec) 
Heartbeat CPU 2 instructions: 2220000000 cycles: 1818993681 heartbeat IPC: 1.12746 cumulative IPC: 1.09048 (Simulation time: 3 hr 13 min 8 sec) 
Heartbeat CPU 1 instructions: 870000003 cycles: 1822311128 heartbeat IPC: 0.428149 cumulative IPC: 0.40496 (Simulation time: 3 hr 13 min 28 sec) 
Heartbeat CPU 2 instructions: 2230000001 cycles: 1827842187 heartbeat IPC: 1.13013 cumulative IPC: 1.09069 (Simulation time: 3 hr 14 min 0 sec) 
Heartbeat CPU 2 instructions: 2240000000 cycles: 1836723776 heartbeat IPC: 1.12592 cumulative IPC: 1.09087 (Simulation time: 3 hr 14 min 51 sec) 
Heartbeat CPU 2 instructions: 2250000003 cycles: 1845592477 heartbeat IPC: 1.12756 cumulative IPC: 1.09107 (Simulation time: 3 hr 15 min 45 sec) 
Heartbeat CPU 1 instructions: 880000000 cycles: 1845667283 heartbeat IPC: 0.428153 cumulative IPC: 0.405283 (Simulation time: 3 hr 15 min 45 sec) 
Heartbeat CPU 3 instructions: 660000000 cycles: 1850446178 heartbeat IPC: 0.253388 cumulative IPC: 0.236684 (Simulation time: 3 hr 16 min 14 sec) 
Heartbeat CPU 0 instructions: 720000000 cycles: 1851891211 heartbeat IPC: 0.260145 cumulative IPC: 0.22524 (Simulation time: 3 hr 16 min 23 sec) 
Heartbeat CPU 2 instructions: 2260000000 cycles: 1854439762 heartbeat IPC: 1.13029 cumulative IPC: 1.09127 (Simulation time: 3 hr 16 min 37 sec) 
Heartbeat CPU 2 instructions: 2270000001 cycles: 1863311274 heartbeat IPC: 1.1272 cumulative IPC: 1.09146 (Simulation time: 3 hr 17 min 29 sec) 
Heartbeat CPU 1 instructions: 890000000 cycles: 1869122091 heartbeat IPC: 0.426352 cumulative IPC: 0.405573 (Simulation time: 3 hr 18 min 1 sec) 
Heartbeat CPU 2 instructions: 2280000000 cycles: 1872180497 heartbeat IPC: 1.12749 cumulative IPC: 1.09165 (Simulation time: 3 hr 18 min 21 sec) 
Heartbeat CPU 2 instructions: 2290000001 cycles: 1881028353 heartbeat IPC: 1.13022 cumulative IPC: 1.09185 (Simulation time: 3 hr 19 min 11 sec) 
Heartbeat CPU 2 instructions: 2300000000 cycles: 1889898957 heartbeat IPC: 1.12732 cumulative IPC: 1.09203 (Simulation time: 3 hr 20 min 2 sec) 
Heartbeat CPU 3 instructions: 670000000 cycles: 1890166563 heartbeat IPC: 0.25176 cumulative IPC: 0.237031 (Simulation time: 3 hr 20 min 4 sec) 
Heartbeat CPU 1 instructions: 900000000 cycles: 1892421557 heartbeat IPC: 0.429194 cumulative IPC: 0.405893 (Simulation time: 3 hr 20 min 17 sec) 
Heartbeat CPU 0 instructions: 730000002 cycles: 1896673254 heartbeat IPC: 0.223304 cumulative IPC: 0.22519 (Simulation time: 3 hr 20 min 42 sec) 
Heartbeat CPU 2 instructions: 2310000001 cycles: 1898742185 heartbeat IPC: 1.13081 cumulative IPC: 1.09223 (Simulation time: 3 hr 20 min 54 sec) 
Heartbeat CPU 2 instructions: 2320000000 cycles: 1907617074 heartbeat IPC: 1.12677 cumulative IPC: 1.09241 (Simulation time: 3 hr 21 min 45 sec) 
Heartbeat CPU 1 instructions: 910000000 cycles: 1915551999 heartbeat IPC: 0.432331 cumulative IPC: 0.406242 (Simulation time: 3 hr 22 min 29 sec) 
Heartbeat CPU 2 instructions: 2330000003 cycles: 1916458323 heartbeat IPC: 1.13106 cumulative IPC: 1.0926 (Simulation time: 3 hr 22 min 35 sec) 
Heartbeat CPU 2 instructions: 2340000000 cycles: 1925275773 heartbeat IPC: 1.13411 cumulative IPC: 1.09281 (Simulation time: 3 hr 23 min 29 sec) 
Heartbeat CPU 3 instructions: 680000000 cycles: 1930036688 heartbeat IPC: 0.250814 cumulative IPC: 0.237343 (Simulation time: 3 hr 23 min 56 sec) 
Heartbeat CPU 2 instructions: 2350000003 cycles: 1934041971 heartbeat IPC: 1.14075 cumulative IPC: 1.09305 (Simulation time: 3 hr 24 min 20 sec) 
Heartbeat CPU 1 instructions: 920000000 cycles: 1938400037 heartbeat IPC: 0.437674 cumulative IPC: 0.406648 (Simulation time: 3 hr 24 min 45 sec) 
Heartbeat CPU 0 instructions: 740000000 cycles: 1938761804 heartbeat IPC: 0.237594 cumulative IPC: 0.225485 (Simulation time: 3 hr 24 min 47 sec) 
Heartbeat CPU 2 instructions: 2360000000 cycles: 1942786863 heartbeat IPC: 1.14352 cumulative IPC: 1.0933 (Simulation time: 3 hr 25 min 10 sec) 
Heartbeat CPU 2 instructions: 2370000001 cycles: 1951550404 heartbeat IPC: 1.14109 cumulative IPC: 1.09353 (Simulation time: 3 hr 26 min 0 sec) 
Heartbeat CPU 2 instructions: 2380000000 cycles: 1960365246 heartbeat IPC: 1.13445 cumulative IPC: 1.09373 (Simulation time: 3 hr 26 min 51 sec) 
Heartbeat CPU 1 instructions: 930000000 cycles: 1961340490 heartbeat IPC: 0.435911 cumulative IPC: 0.407022 (Simulation time: 3 hr 26 min 56 sec) 
Heartbeat CPU 2 instructions: 2390000000 cycles: 1969256737 heartbeat IPC: 1.12467 cumulative IPC: 1.09388 (Simulation time: 3 hr 27 min 43 sec) 
Heartbeat CPU 3 instructions: 690000001 cycles: 1970073149 heartbeat IPC: 0.249772 cumulative IPC: 0.237619 (Simulation time: 3 hr 27 min 48 sec) 
Heartbeat CPU 2 instructions: 2400000000 cycles: 1978067774 heartbeat IPC: 1.13494 cumulative IPC: 1.09408 (Simulation time: 3 hr 28 min 36 sec) 
Heartbeat CPU 0 instructions: 750000001 cycles: 1983254799 heartbeat IPC: 0.224754 cumulative IPC: 0.225467 (Simulation time: 3 hr 29 min 6 sec) 
Heartbeat CPU 1 instructions: 940000000 cycles: 1984323273 heartbeat IPC: 0.435108 cumulative IPC: 0.407378 (Simulation time: 3 hr 29 min 12 sec) 
Heartbeat CPU 2 instructions: 2410000000 cycles: 1986896530 heartbeat IPC: 1.13266 cumulative IPC: 1.09427 (Simulation time: 3 hr 29 min 26 sec) 
Heartbeat CPU 2 instructions: 2420000000 cycles: 1995713669 heartbeat IPC: 1.13415 cumulative IPC: 1.09446 (Simulation time: 3 hr 30 min 18 sec) 
Heartbeat CPU 2 instructions: 2430000002 cycles: 2004571764 heartbeat IPC: 1.12891 cumulative IPC: 1.09463 (Simulation time: 3 hr 31 min 9 sec) 
Heartbeat CPU 1 instructions: 950000003 cycles: 2007965662 heartbeat IPC: 0.422969 cumulative IPC: 0.407578 (Simulation time: 3 hr 31 min 29 sec) 
Heartbeat CPU 3 instructions: 700000000 cycles: 2008868523 heartbeat IPC: 0.257763 cumulative IPC: 0.238044 (Simulation time: 3 hr 31 min 35 sec) 
Heartbeat CPU 2 instructions: 2440000000 cycles: 2013124229 heartbeat IPC: 1.16925 cumulative IPC: 1.09498 (Simulation time: 3 hr 31 min 59 sec) 
Heartbeat CPU 2 instructions: 2450000001 cycles: 2021650904 heartbeat IPC: 1.17279 cumulative IPC: 1.09533 (Simulation time: 3 hr 32 min 48 sec) 
Heartbeat CPU 0 instructions: 760000000 cycles: 2025188907 heartbeat IPC: 0.238469 cumulative IPC: 0.225761 (Simulation time: 3 hr 33 min 10 sec) 
Heartbeat CPU 2 instructions: 2460000000 cycles: 2030189640 heartbeat IPC: 1.17113 cumulative IPC: 1.09568 (Simulation time: 3 hr 33 min 40 sec) 
Heartbeat CPU 1 instructions: 960000000 cycles: 2031395899 heartbeat IPC: 0.426799 cumulative IPC: 0.40782 (Simulation time: 3 hr 33 min 47 sec) 
Heartbeat CPU 2 instructions: 2470000000 cycles: 2041800774 heartbeat IPC: 0.861242 cumulative IPC: 1.09423 (Simulation time: 3 hr 34 min 47 sec) 
Heartbeat CPU 3 instructions: 710000000 cycles: 2046917219 heartbeat IPC: 0.262821 cumulative IPC: 0.238546 (Simulation time: 3 hr 35 min 16 sec) 
Heartbeat CPU 2 instructions: 2480000000 cycles: 2051446880 heartbeat IPC: 1.03669 cumulative IPC: 1.09393 (Simulation time: 3 hr 35 min 41 sec) 
Heartbeat CPU 1 instructions: 970000003 cycles: 2056158147 heartbeat IPC: 0.403841 cumulative IPC: 0.407768 (Simulation time: 3 hr 36 min 8 sec) 
Heartbeat CPU 2 instructions: 2490000000 cycles: 2060303430 heartbeat IPC: 1.12911 cumulative IPC: 1.0941 (Simulation time: 3 hr 36 min 31 sec) 
Heartbeat CPU 2 instructions: 2500000000 cycles: 2069211489 heartbeat IPC: 1.12258 cumulative IPC: 1.09423 (Simulation time: 3 hr 37 min 22 sec) 
Heartbeat CPU 0 instructions: 770000002 cycles: 2071023382 heartbeat IPC: 0.218176 cumulative IPC: 0.225578 (Simulation time: 3 hr 37 min 32 sec) 
Heartbeat CPU 2 instructions: 2510000003 cycles: 2078182977 heartbeat IPC: 1.11464 cumulative IPC: 1.09433 (Simulation time: 3 hr 38 min 15 sec) 
Heartbeat CPU 1 instructions: 980000000 cycles: 2079688094 heartbeat IPC: 0.42499 cumulative IPC: 0.407979 (Simulation time: 3 hr 38 min 24 sec) 
Heartbeat CPU 3 instructions: 720000000 cycles: 2084832267 heartbeat IPC: 0.263748 cumulative IPC: 0.239044 (Simulation time: 3 hr 38 min 54 sec) 
Heartbeat CPU 2 instructions: 2520000000 cycles: 2087157792 heartbeat IPC: 1.11423 cumulative IPC: 1.09442 (Simulation time: 3 hr 39 min 7 sec) 
Heartbeat CPU 2 instructions: 2530000001 cycles: 2096724435 heartbeat IPC: 1.0453 cumulative IPC: 1.09418 (Simulation time: 3 hr 40 min 3 sec) 
Heartbeat CPU 1 instructions: 990000000 cycles: 2102641978 heartbeat IPC: 0.435656 cumulative IPC: 0.408308 (Simulation time: 3 hr 40 min 39 sec) 
Heartbeat CPU 2 instructions: 2540000000 cycles: 2106405408 heartbeat IPC: 1.03295 cumulative IPC: 1.09387 (Simulation time: 3 hr 41 min 0 sec) 
Heartbeat CPU 0 instructions: 780000000 cycles: 2110900184 heartbeat IPC: 0.250772 cumulative IPC: 0.226095 (Simulation time: 3 hr 41 min 27 sec) 
Heartbeat CPU 2 instructions: 2550000000 cycles: 2116056165 heartbeat IPC: 1.03619 cumulative IPC: 1.09359 (Simulation time: 3 hr 41 min 57 sec) 
Heartbeat CPU 3 instructions: 730000000 cycles: 2121801185 heartbeat IPC: 0.270498 cumulative IPC: 0.239639 (Simulation time: 3 hr 42 min 31 sec) 
Heartbeat CPU 1 instructions: 1000000000 cycles: 2125665199 heartbeat IPC: 0.434344 cumulative IPC: 0.408614 (Simulation time: 3 hr 42 min 54 sec) 
Heartbeat CPU 2 instructions: 2560000000 cycles: 2125685559 heartbeat IPC: 1.03849 cumulative IPC: 1.09332 (Simulation time: 3 hr 42 min 54 sec) 
Heartbeat CPU 2 instructions: 2570000002 cycles: 2135341536 heartbeat IPC: 1.03563 cumulative IPC: 1.09303 (Simulation time: 3 hr 43 min 52 sec) 
Heartbeat CPU 2 instructions: 2580000000 cycles: 2144972312 heartbeat IPC: 1.03834 cumulative IPC: 1.09277 (Simulation time: 3 hr 44 min 47 sec) 
Heartbeat CPU 1 instructions: 1010000002 cycles: 2148964562 heartbeat IPC: 0.429196 cumulative IPC: 0.408856 (Simulation time: 3 hr 45 min 11 sec) 
Heartbeat CPU 0 instructions: 790000000 cycles: 2153410463 heartbeat IPC: 0.235237 cumulative IPC: 0.226291 (Simulation time: 3 hr 45 min 37 sec) 
Heartbeat CPU 2 instructions: 2590000000 cycles: 2154676695 heartbeat IPC: 1.03046 cumulative IPC: 1.09246 (Simulation time: 3 hr 45 min 44 sec) 
Heartbeat CPU 3 instructions: 740000000 cycles: 2158918133 heartbeat IPC: 0.269419 cumulative IPC: 0.240194 (Simulation time: 3 hr 46 min 10 sec) 
Heartbeat CPU 2 instructions: 2600000000 cycles: 2164383488 heartbeat IPC: 1.03021 cumulative IPC: 1.09216 (Simulation time: 3 hr 46 min 43 sec) 
Heartbeat CPU 1 instructions: 1020000000 cycles: 2171976260 heartbeat IPC: 0.434561 cumulative IPC: 0.409151 (Simulation time: 3 hr 47 min 28 sec) 
Heartbeat CPU 2 instructions: 2610000003 cycles: 2174094351 heartbeat IPC: 1.02977 cumulative IPC: 1.09186 (Simulation time: 3 hr 47 min 41 sec) 
Heartbeat CPU 2 instructions: 2620000000 cycles: 2183807555 heartbeat IPC: 1.02953 cumulative IPC: 1.09156 (Simulation time: 3 hr 48 min 40 sec) 
Heartbeat CPU 0 instructions: 800000000 cycles: 2192906058 heartbeat IPC: 0.253193 cumulative IPC: 0.226815 (Simulation time: 3 hr 49 min 29 sec) 
Heartbeat CPU 2 instructions: 2630000002 cycles: 2193521749 heartbeat IPC: 1.02942 cumulative IPC: 1.09126 (Simulation time: 3 hr 49 min 32 sec) 
Heartbeat CPU 3 instructions: 750000001 cycles: 2196339699 heartbeat IPC: 0.267226 cumulative IPC: 0.240693 (Simulation time: 3 hr 49 min 48 sec) 
Heartbeat CPU 1 instructions: 1030000002 cycles: 2198054607 heartbeat IPC: 0.38346 cumulative IPC: 0.408821 (Simulation time: 3 hr 49 min 57 sec) 
Heartbeat CPU 2 instructions: 2640000000 cycles: 2203128609 heartbeat IPC: 1.04092 cumulative IPC: 1.09102 (Simulation time: 3 hr 50 min 27 sec) 
Heartbeat CPU 2 instructions: 2650000000 cycles: 2212097844 heartbeat IPC: 1.11492 cumulative IPC: 1.09113 (Simulation time: 3 hr 51 min 19 sec) 
Heartbeat CPU 2 instructions: 2660000000 cycles: 2220977126 heartbeat IPC: 1.12622 cumulative IPC: 1.09128 (Simulation time: 3 hr 52 min 9 sec) 
Heartbeat CPU 1 instructions: 1040000000 cycles: 2222143319 heartbeat IPC: 0.415132 cumulative IPC: 0.408895 (Simulation time: 3 hr 52 min 16 sec) 
Heartbeat CPU 2 instructions: 2670000000 cycles: 2230198808 heartbeat IPC: 1.0844 cumulative IPC: 1.09125 (Simulation time: 3 hr 53 min 2 sec) 
Heartbeat CPU 0 instructions: 810000000 cycles: 2232838276 heartbeat IPC: 0.250424 cumulative IPC: 0.227272 (Simulation time: 3 hr 53 min 20 sec) 
Heartbeat CPU 3 instructions: 760000000 cycles: 2235422142 heartbeat IPC: 0.255869 cumulative IPC: 0.24098 (Simulation time: 3 hr 53 min 35 sec) 
Heartbeat CPU 2 instructions: 2680000000 cycles: 2239048414 heartbeat IPC: 1.12999 cumulative IPC: 1.09141 (Simulation time: 3 hr 53 min 56 sec) 
Heartbeat CPU 1 instructions: 1050000000 cycles: 2245741592 heartbeat IPC: 0.42376 cumulative IPC: 0.409064 (Simulation time: 3 hr 54 min 35 sec) 
Heartbeat CPU 2 instructions: 2690000000 cycles: 2247846725 heartbeat IPC: 1.13658 cumulative IPC: 1.0916 (Simulation time: 3 hr 54 min 47 sec) 
Heartbeat CPU 2 instructions: 2700000000 cycles: 2256639165 heartbeat IPC: 1.13734 cumulative IPC: 1.0918 (Simulation time: 3 hr 55 min 38 sec) 
Heartbeat CPU 2 instructions: 2710000002 cycles: 2265432723 heartbeat IPC: 1.1372 cumulative IPC: 1.09199 (Simulation time: 3 hr 56 min 29 sec) 
Heartbeat CPU 1 instructions: 1060000000 cycles: 2269372012 heartbeat IPC: 0.423183 cumulative IPC: 0.409223 (Simulation time: 3 hr 56 min 51 sec) 
Heartbeat CPU 2 instructions: 2720000000 cycles: 2274332432 heartbeat IPC: 1.12363 cumulative IPC: 1.09212 (Simulation time: 3 hr 57 min 22 sec) 
Heartbeat CPU 3 instructions: 770000003 cycles: 2275425620 heartbeat IPC: 0.249978 cumulative IPC: 0.241151 (Simulation time: 3 hr 57 min 28 sec) 
Heartbeat CPU 0 instructions: 820000000 cycles: 2276076112 heartbeat IPC: 0.231279 cumulative IPC: 0.227354 (Simulation time: 3 hr 57 min 32 sec) 
Heartbeat CPU 2 instructions: 2730000003 cycles: 2286487119 heartbeat IPC: 0.822728 cumulative IPC: 1.09057 (Simulation time: 3 hr 58 min 32 sec) 
Heartbeat CPU 1 instructions: 1070000001 cycles: 2294253123 heartbeat IPC: 0.401911 cumulative IPC: 0.409137 (Simulation time: 3 hr 59 min 16 sec) 
Heartbeat CPU 2 instructions: 2740000000 cycles: 2295599612 heartbeat IPC: 1.09739 cumulative IPC: 1.0906 (Simulation time: 3 hr 59 min 24 sec) 
Heartbeat CPU 2 instructions: 2750000001 cycles: 2304350019 heartbeat IPC: 1.1428 cumulative IPC: 1.09082 (Simulation time: 4 hr 0 min 15 sec) 
Heartbeat CPU 2 instructions: 2760000000 cycles: 2313117442 heartbeat IPC: 1.14059 cumulative IPC: 1.09102 (Simulation time: 4 hr 1 min 5 sec) 
Heartbeat CPU 3 instructions: 780000000 cycles: 2317232942 heartbeat IPC: 0.239192 cumulative IPC: 0.241112 (Simulation time: 4 hr 1 min 28 sec) 
[...]
Heartbeat CPU 3 instructions: 1280000000 cycles: 4420040773 heartbeat IPC: 0.240562 cumulative IPC: 0.239463 (Simulation time: 7 hr 17 min 32 sec) 
Heartbeat CPU 2 instructions: 5070000002 cycles: 4421863724 heartbeat IPC: 1.10228 cumulative IPC: 1.09321 (Simulation time: 7 hr 17 min 42 sec) 
Heartbeat CPU 1 instructions: 2040000000 cycles: 4423737486 heartbeat IPC: 0.39659 cumulative IPC: 0.43234 (Simulation time: 7 hr 17 min 52 sec) 
Heartbeat CPU 2 instructions: 5080000000 cycles: 4431205069 heartbeat IPC: 1.07051 cumulative IPC: 1.09316 (Simulation time: 7 hr 18 min 34 sec) 
Heartbeat CPU 0 instructions: 1300000000 cycles: 4432951737 heartbeat IPC: 0.220198 cumulative IPC: 0.224922 (Simulation time: 7 hr 18 min 44 sec) 
Heartbeat CPU 2 instructions: 5090000001 cycles: 4440700383 heartbeat IPC: 1.05315 cumulative IPC: 1.09307 (Simulation time: 7 hr 19 min 27 sec) 
Heartbeat CPU 1 instructions: 2050000001 cycles: 4448989646 heartbeat IPC: 0.396006 cumulative IPC: 0.432126 (Simulation time: 7 hr 20 min 15 sec) 
Heartbeat CPU 2 instructions: 5100000000 cycles: 4449935903 heartbeat IPC: 1.08278 cumulative IPC: 1.09305 (Simulation time: 7 hr 20 min 21 sec) 
Heartbeat CPU 2 instructions: 5110000000 cycles: 4458990902 heartbeat IPC: 1.10436 cumulative IPC: 1.09307 (Simulation time: 7 hr 21 min 10 sec) 
Heartbeat CPU 3 instructions: 1290000002 cycles: 4465031128 heartbeat IPC: 0.22227 cumulative IPC: 0.239283 (Simulation time: 7 hr 21 min 43 sec) 
Heartbeat CPU 2 instructions: 5120000000 cycles: 4467957331 heartbeat IPC: 1.11527 cumulative IPC: 1.09312 (Simulation time: 7 hr 21 min 58 sec) 
Heartbeat CPU 1 instructions: 2060000000 cycles: 4474056109 heartbeat IPC: 0.398939 cumulative IPC: 0.431932 (Simulation time: 7 hr 22 min 32 sec) 
Heartbeat CPU 2 instructions: 5130000002 cycles: 4477313396 heartbeat IPC: 1.06883 cumulative IPC: 1.09307 (Simulation time: 7 hr 22 min 49 sec) 
Heartbeat CPU 0 instructions: 1310000001 cycles: 4479045642 heartbeat IPC: 0.216948 cumulative IPC: 0.224836 (Simulation time: 7 hr 22 min 59 sec) 
Heartbeat CPU 2 instructions: 5140000000 cycles: 4486324656 heartbeat IPC: 1.10972 cumulative IPC: 1.0931 (Simulation time: 7 hr 23 min 39 sec) 
Heartbeat CPU 2 instructions: 5150000000 cycles: 4495328617 heartbeat IPC: 1.11062 cumulative IPC: 1.09314 (Simulation time: 7 hr 24 min 31 sec) 
Heartbeat CPU 1 instructions: 2070000001 cycles: 4499260933 heartbeat IPC: 0.396749 cumulative IPC: 0.431728 (Simulation time: 7 hr 24 min 53 sec) 
Heartbeat CPU 2 instructions: 5160000000 cycles: 4504481643 heartbeat IPC: 1.09253 cumulative IPC: 1.09314 (Simulation time: 7 hr 25 min 22 sec) 
Heartbeat CPU 3 instructions: 1300000000 cycles: 4505347390 heartbeat IPC: 0.248039 cumulative IPC: 0.239365 (Simulation time: 7 hr 25 min 27 sec) 
Heartbeat CPU 2 instructions: 5170000001 cycles: 4513498681 heartbeat IPC: 1.10901 cumulative IPC: 1.09317 (Simulation time: 7 hr 26 min 13 sec) 
Heartbeat CPU 2 instructions: 5180000000 cycles: 4522639606 heartbeat IPC: 1.09398 cumulative IPC: 1.09317 (Simulation time: 7 hr 27 min 4 sec) 
Heartbeat CPU 1 instructions: 2080000000 cycles: 4524140408 heartbeat IPC: 0.401938 cumulative IPC: 0.431558 (Simulation time: 7 hr 27 min 13 sec) 
Heartbeat CPU 0 instructions: 1320000000 cycles: 4524646083 heartbeat IPC: 0.219296 cumulative IPC: 0.224779 (Simulation time: 7 hr 27 min 16 sec) 
Heartbeat CPU 2 instructions: 5190000002 cycles: 4531658415 heartbeat IPC: 1.10879 cumulative IPC: 1.0932 (Simulation time: 7 hr 27 min 55 sec) 
Heartbeat CPU 2 instructions: 5200000000 cycles: 4540796459 heartbeat IPC: 1.09433 cumulative IPC: 1.09321 (Simulation time: 7 hr 28 min 47 sec) 
Heartbeat CPU 3 instructions: 1310000003 cycles: 4545326080 heartbeat IPC: 0.250133 cumulative IPC: 0.239463 (Simulation time: 7 hr 29 min 12 sec) 
Heartbeat CPU 1 instructions: 2090000000 cycles: 4549244501 heartbeat IPC: 0.398341 cumulative IPC: 0.431367 (Simulation time: 7 hr 29 min 35 sec) 
Heartbeat CPU 2 instructions: 5210000000 cycles: 4549769958 heartbeat IPC: 1.11439 cumulative IPC: 1.09325 (Simulation time: 7 hr 29 min 38 sec) 
Heartbeat CPU 2 instructions: 5220000000 cycles: 4558781916 heartbeat IPC: 1.10964 cumulative IPC: 1.09328 (Simulation time: 7 hr 30 min 29 sec) 
Heartbeat CPU 2 instructions: 5230000001 cycles: 4567932305 heartbeat IPC: 1.09285 cumulative IPC: 1.09328 (Simulation time: 7 hr 31 min 20 sec) 
Heartbeat CPU 0 instructions: 1330000001 cycles: 4567968407 heartbeat IPC: 0.230828 cumulative IPC: 0.224838 (Simulation time: 7 hr 31 min 20 sec) 
Heartbeat CPU 1 instructions: 2100000000 cycles: 4574520129 heartbeat IPC: 0.395638 cumulative IPC: 0.431162 (Simulation time: 7 hr 31 min 56 sec) 
Heartbeat CPU 2 instructions: 5240000000 cycles: 4576946474 heartbeat IPC: 1.10936 cumulative IPC: 1.09332 (Simulation time: 7 hr 32 min 9 sec) 
Heartbeat CPU 2 instructions: 5250000000 cycles: 4586296833 heartbeat IPC: 1.06948 cumulative IPC: 1.09326 (Simulation time: 7 hr 33 min 2 sec) 
Heartbeat CPU 3 instructions: 1320000000 cycles: 4586714425 heartbeat IPC: 0.241614 cumulative IPC: 0.239483 (Simulation time: 7 hr 33 min 4 sec) 
Heartbeat CPU 2 instructions: 5260000000 cycles: 4595269517 heartbeat IPC: 1.11449 cumulative IPC: 1.09331 (Simulation time: 7 hr 33 min 51 sec) 
Heartbeat CPU 1 instructions: 2110000002 cycles: 4599592263 heartbeat IPC: 0.398849 cumulative IPC: 0.43098 (Simulation time: 7 hr 34 min 16 sec) 
Heartbeat CPU 2 instructions: 5270000002 cycles: 4604256320 heartbeat IPC: 1.11274 cumulative IPC: 1.09335 (Simulation time: 7 hr 34 min 42 sec) 
Heartbeat CPU 2 instructions: 5280000000 cycles: 4613583248 heartbeat IPC: 1.07216 cumulative IPC: 1.0933 (Simulation time: 7 hr 35 min 35 sec) 
Heartbeat CPU 0 instructions: 1340000000 cycles: 4615528613 heartbeat IPC: 0.21026 cumulative IPC: 0.224682 (Simulation time: 7 hr 35 min 45 sec) 
Finished CPU 0 instructions: 1000000002 cycles: 4451024505 cumulative IPC: 0.224667 (Simulation time: 7 hr 36 min 3 sec) 

CPU 0 Branch Prediction Accuracy: 99.286% MPKI: 1.47774

CPU 1 Branch Prediction Accuracy: 99.6187% MPKI: 0.0374866

CPU 2 Branch Prediction Accuracy: 92.4108% MPKI: 10.2877

CPU 3 Branch Prediction Accuracy: 92.6764% MPKI: 15.0943

ChampSim completed all CPUs

Total Simulation Statistics (not including warmup)

CPU 0 cumulative IPC: 0.224667 instructions: 1000000002 cycles: 4451024505
L1D TOTAL     ACCESS:  232131553  HIT:  203922290  MISS:   28209263
L1D LOAD      ACCESS:  186272620  HIT:  158642668  MISS:   27629952
L1D RFO       ACCESS:   45858933  HIT:   45279622  MISS:     579311
L1D PREFETCH  ACCESS:          0  HIT:          0  MISS:          0
L1D WRITEBACK ACCESS:          0  HIT:          0  MISS:          0
L1I TOTAL     ACCESS:  320369906  HIT:  316975648  MISS:    3394258
L1I LOAD      ACCESS:  320369906  HIT:  316975648  MISS:    3394258
L1I RFO       ACCESS:          0  HIT:          0  MISS:          0
L1I PREFETCH  ACCESS:          0  HIT:          0  MISS:          0
L1I WRITEBACK ACCESS:          0  HIT:          0  MISS:          0
L2C TOTAL     ACCESS:   32804677  HIT:    6112822  MISS:   26691855
L2C LOAD      ACCESS:   31023566  HIT:    4637410  MISS:   26386156
L2C RFO       ACCESS:     579243  HIT:     283319  MISS:     295924
L2C PREFETCH  ACCESS:          0  HIT:          0  MISS:          0
L2C WRITEBACK ACCESS:    1201868  HIT:    1192093  MISS:       9775
LLC TOTAL     ACCESS:   27190638  HIT:    4379106  MISS:   22811532
LLC LOAD      ACCESS:   26386153  HIT:    3797953  MISS:   22588200
LLC RFO       ACCESS:     295920  HIT:      74712  MISS:     221208
LLC PREFETCH  ACCESS:          0  HIT:          0  MISS:          0
LLC WRITEBACK ACCESS:     508565  HIT:     506441  MISS:       2124

CPU 1 cumulative IPC: 0.430827 instructions: 1917620482 cycles: 4451024505
L1D TOTAL     ACCESS:  886385930  HIT:  848589424  MISS:   37796506
L1D LOAD      ACCESS:  774031092  HIT:  736234917  MISS:   37796175
L1D RFO       ACCESS:  112354838  HIT:  112354507  MISS:        331
L1D PREFETCH  ACCESS:          0  HIT:          0  MISS:          0
L1D WRITEBACK ACCESS:          0  HIT:          0  MISS:          0
L1I TOTAL     ACCESS:  528419116  HIT:  528418582  MISS:        534
L1I LOAD      ACCESS:  528419116  HIT:  528418582  MISS:        534
L1I RFO       ACCESS:          0  HIT:          0  MISS:          0
L1I PREFETCH  ACCESS:          0  HIT:          0  MISS:          0
L1I WRITEBACK ACCESS:          0  HIT:          0  MISS:          0
L2C TOTAL     ACCESS:   52368070  HIT:   18658243  MISS:   33709827
L2C LOAD      ACCESS:   37796702  HIT:    4089251  MISS:   33707451
L2C RFO       ACCESS:        327  HIT:        291  MISS:         36
L2C PREFETCH  ACCESS:          0  HIT:          0  MISS:          0
L2C WRITEBACK ACCESS:   14571041  HIT:   14568701  MISS:       2340
LLC TOTAL     ACCESS:   48259987  HIT:   17351781  MISS:   30908206
LLC LOAD      ACCESS:   33707451  HIT:    2799812  MISS:   30907639
LLC RFO       ACCESS:         36  HIT:         12  MISS:         24
LLC PREFETCH  ACCESS:          0  HIT:          0  MISS:          0
LLC WRITEBACK ACCESS:   14552500  HIT:   14551957  MISS:        543

CPU 2 cumulative IPC: 1.09329 instructions: 4866247108 cycles: 4451024506
L1D TOTAL     ACCESS:  870095486  HIT:  868399573  MISS:    1695913
L1D LOAD      ACCESS:  673434762  HIT:  673250599  MISS:     184163
L1D RFO       ACCESS:  196660724  HIT:  195148974  MISS:    1511750
L1D PREFETCH  ACCESS:          0  HIT:          0  MISS:          0
L1D WRITEBACK ACCESS:          0  HIT:          0  MISS:          0
L1I TOTAL     ACCESS: 1204081691  HIT: 1204081691  MISS:          0
L1I LOAD      ACCESS: 1204081691  HIT: 1204081691  MISS:          0
L1I RFO       ACCESS:          0  HIT:          0  MISS:          0
L1I PREFETCH  ACCESS:          0  HIT:          0  MISS:          0
L1I WRITEBACK ACCESS:          0  HIT:          0  MISS:          0
L2C TOTAL     ACCESS:    3208104  HIT:    1600485  MISS:    1607619
L2C LOAD      ACCESS:     184163  HIT:      37607  MISS:     146556
L2C RFO       ACCESS:    1511750  HIT:      50706  MISS:    1461044
L2C PREFETCH  ACCESS:          0  HIT:          0  MISS:          0
L2C WRITEBACK ACCESS:    1512191  HIT:    1512172  MISS:         19
LLC TOTAL     ACCESS:    3068739  HIT:     978245  MISS:    2090494
LLC LOAD      ACCESS:     146556  HIT:          0  MISS:     146556
LLC RFO       ACCESS:    1461044  HIT:        250  MISS:    1460794
LLC PREFETCH  ACCESS:          0  HIT:          0  MISS:          0
LLC WRITEBACK ACCESS:    1461139  HIT:     977995  MISS:     483144

CPU 3 cumulative IPC: 0.239466 instructions: 1065867293 cycles: 4451024506
L1D TOTAL     ACCESS:  367005575  HIT:  291241170  MISS:   75764405
L1D LOAD      ACCESS:  277784041  HIT:  205406469  MISS:   72377572
L1D RFO       ACCESS:   89221534  HIT:   85834701  MISS:    3386833
L1D PREFETCH  ACCESS:          0  HIT:          0  MISS:          0
L1D WRITEBACK ACCESS:          0  HIT:          0  MISS:          0
L1I TOTAL     ACCESS:  249362137  HIT:  249362137  MISS:          0
L1I LOAD      ACCESS:  249362137  HIT:  249362137  MISS:          0
L1I RFO       ACCESS:          0  HIT:          0  MISS:          0
L1I PREFETCH  ACCESS:          0  HIT:          0  MISS:          0
L1I WRITEBACK ACCESS:          0  HIT:          0  MISS:          0
L2C TOTAL     ACCESS:   81265000  HIT:   15599618  MISS:   65665382
L2C LOAD      ACCESS:   72377257  HIT:    9482560  MISS:   62894697
L2C RFO       ACCESS:    3386820  HIT:     622921  MISS:    2763899
L2C PREFETCH  ACCESS:          0  HIT:          0  MISS:          0
L2C WRITEBACK ACCESS:    5500923  HIT:    5494137  MISS:       6786
LLC TOTAL     ACCESS:   70261403  HIT:   43849627  MISS:   26411776
LLC LOAD      ACCESS:   62894656  HIT:   36504281  MISS:   26390375
LLC RFO       ACCESS:    2763896  HIT:    2743256  MISS:      20640
LLC PREFETCH  ACCESS:          0  HIT:          0  MISS:          0
LLC WRITEBACK ACCESS:    4602851  HIT:    4602090  MISS:        761

Region of Interest Statistics

CPU 0 cumulative IPC: 0.224667 instructions: 1000000002 cycles: 4451024505
L1D TOTAL     ACCESS:  232131553  HIT:  203922290  MISS:   28209263
L1D LOAD      ACCESS:  186272620  HIT:  158642668  MISS:   27629952
L1D RFO       ACCESS:   45858933  HIT:   45279622  MISS:     579311
L1D PREFETCH  ACCESS:          0  HIT:          0  MISS:          0
L1D WRITEBACK ACCESS:          0  HIT:          0  MISS:          0
L1D PREFETCH  REQUESTED:          0  ISSUED:          0  USEFUL:          0  USELESS:          0
L1I TOTAL     ACCESS:  320369906  HIT:  316975648  MISS:    3394258
L1I LOAD      ACCESS:  320369906  HIT:  316975648  MISS:    3394258
L1I RFO       ACCESS:          0  HIT:          0  MISS:          0
L1I PREFETCH  ACCESS:          0  HIT:          0  MISS:          0
L1I WRITEBACK ACCESS:          0  HIT:          0  MISS:          0
L1I PREFETCH  REQUESTED:          0  ISSUED:          0  USEFUL:          0  USELESS:          0
L2C TOTAL     ACCESS:   32804677  HIT:    6112822  MISS:   26691855
L2C LOAD      ACCESS:   31023566  HIT:    4637410  MISS:   26386156
L2C RFO       ACCESS:     579243  HIT:     283319  MISS:     295924
L2C PREFETCH  ACCESS:          0  HIT:          0  MISS:          0
L2C WRITEBACK ACCESS:    1201868  HIT:    1192093  MISS:       9775
L2C PREFETCH  REQUESTED:          0  ISSUED:          0  USEFUL:          0  USELESS:          0
LLC TOTAL     ACCESS:   27190638  HIT:    4379106  MISS:   22811532
LLC LOAD      ACCESS:   26386153  HIT:    3797953  MISS:   22588200
LLC RFO       ACCESS:     295920  HIT:      74712  MISS:     221208
LLC PREFETCH  ACCESS:          0  HIT:          0  MISS:          0
LLC WRITEBACK ACCESS:     508565  HIT:     506441  MISS:       2124
LLC PREFETCH  REQUESTED:          0  ISSUED:          0  USEFUL:          0  USELESS:          0
Major fault: 0 Minor fault: 13556

CPU 1 cumulative IPC: 0.411113 instructions: 1000000000 cycles: 2432423897
L1D TOTAL     ACCESS:  563673501  HIT:  542948126  MISS:   20725375
L1D LOAD      ACCESS:  499329161  HIT:  478604105  MISS:   20725056
L1D RFO       ACCESS:   64344340  HIT:   64344021  MISS:        319
L1D PREFETCH  ACCESS:          0  HIT:          0  MISS:          0
L1D WRITEBACK ACCESS:          0  HIT:          0  MISS:          0
L1D PREFETCH  REQUESTED:          0  ISSUED:          0  USEFUL:          0  USELESS:          0
L1I TOTAL     ACCESS:  306229852  HIT:  306229518  MISS:        334
L1I LOAD      ACCESS:  306229852  HIT:  306229518  MISS:        334
L1I RFO       ACCESS:          0  HIT:          0  MISS:          0
L1I PREFETCH  ACCESS:          0  HIT:          0  MISS:          0
L1I WRITEBACK ACCESS:          0  HIT:          0  MISS:          0
L1I PREFETCH  REQUESTED:          0  ISSUED:          0  USEFUL:          0  USELESS:          0
L2C TOTAL     ACCESS:   29523143  HIT:   12029684  MISS:   17493459
L2C LOAD      ACCESS:   20725386  HIT:    3231968  MISS:   17493418
L2C RFO       ACCESS:        315  HIT:        290  MISS:         25
L2C PREFETCH  ACCESS:          0  HIT:          0  MISS:          0
L2C WRITEBACK ACCESS:    8797442  HIT:    8797426  MISS:         16
L2C PREFETCH  REQUESTED:          0  ISSUED:          0  USEFUL:          0  USELESS:          0
LLC TOTAL     ACCESS:   26286977  HIT:   10976980  MISS:   15309997
LLC LOAD      ACCESS:   17493418  HIT:    2183454  MISS:   15309964
LLC RFO       ACCESS:         25  HIT:         12  MISS:         13
LLC PREFETCH  ACCESS:          0  HIT:          0  MISS:          0
LLC WRITEBACK ACCESS:    8793534  HIT:    8793514  MISS:         20
LLC PREFETCH  REQUESTED:          0  ISSUED:          0  USEFUL:          0  USELESS:          0
Major fault: 0 Minor fault: 941584

CPU 2 cumulative IPC: 1.09061 instructions: 1000000000 cycles: 916914034
L1D TOTAL     ACCESS:  179693683  HIT:  179314979  MISS:     378704
L1D LOAD      ACCESS:  138600613  HIT:  138559785  MISS:      40828
L1D RFO       ACCESS:   41093070  HIT:   40755194  MISS:     337876
L1D PREFETCH  ACCESS:          0  HIT:          0  MISS:          0
L1D WRITEBACK ACCESS:          0  HIT:          0  MISS:          0
L1D PREFETCH  REQUESTED:          0  ISSUED:          0  USEFUL:          0  USELESS:          0
L1I TOTAL     ACCESS:  247633018  HIT:  247633018  MISS:          0
L1I LOAD      ACCESS:  247633018  HIT:  247633018  MISS:          0
L1I RFO       ACCESS:          0  HIT:          0  MISS:          0
L1I PREFETCH  ACCESS:          0  HIT:          0  MISS:          0
L1I WRITEBACK ACCESS:          0  HIT:          0  MISS:          0
L1I PREFETCH  REQUESTED:          0  ISSUED:          0  USEFUL:          0  USELESS:          0
L2C TOTAL     ACCESS:     716659  HIT:     356030  MISS:     360629
L2C LOAD      ACCESS:      40828  HIT:       7951  MISS:      32877
L2C RFO       ACCESS:     337876  HIT:      10129  MISS:     327747
L2C PREFETCH  ACCESS:          0  HIT:          0  MISS:          0
L2C WRITEBACK ACCESS:     337955  HIT:     337950  MISS:          5
L2C PREFETCH  REQUESTED:          0  ISSUED:          0  USEFUL:          0  USELESS:          0
LLC TOTAL     ACCESS:     688368  HIT:     229347  MISS:     459021
LLC LOAD      ACCESS:      32877  HIT:          0  MISS:      32877
LLC RFO       ACCESS:     327747  HIT:         64  MISS:     327683
LLC PREFETCH  ACCESS:          0  HIT:          0  MISS:          0
LLC WRITEBACK ACCESS:     327744  HIT:     229283  MISS:      98461
LLC PREFETCH  REQUESTED:          0  ISSUED:          0  USEFUL:          0  USELESS:          0
Major fault: 0 Minor fault: 10313

CPU 3 cumulative IPC: 0.239578 instructions: 1000000001 cycles: 4174004037
L1D TOTAL     ACCESS:  343753753  HIT:  272344183  MISS:   71409570
L1D LOAD      ACCESS:  260325911  HIT:  192087050  MISS:   68238861
L1D RFO       ACCESS:   83427842  HIT:   80257133  MISS:    3170709
L1D PREFETCH  ACCESS:          0  HIT:          0  MISS:          0
L1D WRITEBACK ACCESS:          0  HIT:          0  MISS:          0
L1D PREFETCH  REQUESTED:          0  ISSUED:          0  USEFUL:          0  USELESS:          0
L1I TOTAL     ACCESS:  234331217  HIT:  234331217  MISS:          0
L1I LOAD      ACCESS:  234331217  HIT:  234331217  MISS:          0
L1I RFO       ACCESS:          0  HIT:          0  MISS:          0
L1I PREFETCH  ACCESS:          0  HIT:          0  MISS:          0
L1I WRITEBACK ACCESS:          0  HIT:          0  MISS:          0
L1I PREFETCH  REQUESTED:          0  ISSUED:          0  USEFUL:          0  USELESS:          0
L2C TOTAL     ACCESS:   76536905  HIT:   14585759  MISS:   61951146
L2C LOAD      ACCESS:   68238562  HIT:    8889519  MISS:   59349043
L2C RFO       ACCESS:    3170696  HIT:     574905  MISS:    2595791
L2C PREFETCH  ACCESS:          0  HIT:          0  MISS:          0
L2C WRITEBACK ACCESS:    5127647  HIT:    5121335  MISS:       6312
L2C PREFETCH  REQUESTED:          0  ISSUED:          0  USEFUL:          0  USELESS:          0
LLC TOTAL     ACCESS:   66236732  HIT:   41307564  MISS:   24929168
LLC LOAD      ACCESS:   59349003  HIT:   34439949  MISS:   24909054
LLC RFO       ACCESS:    2595788  HIT:    2576386  MISS:      19402
LLC PREFETCH  ACCESS:          0  HIT:          0  MISS:          0
LLC WRITEBACK ACCESS:    4291941  HIT:    4291229  MISS:        712
LLC PREFETCH  REQUESTED:          0  ISSUED:          0  USEFUL:          0  USELESS:          0
Major fault: 0 Minor fault: 429201

DRAM Statistics
 CHANNEL 0
 RQ ROW_BUFFER_HIT:   19217058  ROW_BUFFER_MISS:   21653853
 DBUS_CONGESTED:   37357961
 WQ ROW_BUFFER_HIT:     740364  ROW_BUFFER_MISS:    7556627  FULL:          0

 CHANNEL 1
 RQ ROW_BUFFER_HIT:   19230961  ROW_BUFFER_MISS:   21632929
 DBUS_CONGESTED:   37357961
 WQ ROW_BUFFER_HIT:     738911  ROW_BUFFER_MISS:    7549138  FULL:          0

 AVG_CONGESTED_CYCLE: 12
