
*** ChampSim Multicore Out-of-Order Simulator ***

Warmup Instructions: 20000000
Simulation Instructions: 10000000
Number of CPUs: 1
LLC sets: 2048
LLC ways: 16
Off-chip DRAM Size: 4096 MB Channels: 1 Width: 64-bit Data Rate: 1600 MT/s

CPU 0 runs /home/ubuntu/PPF_Paper_Source_Code-master/traces/649.fotonik3d_s-10881B.champsimtrace.xz
L2C Best-offset prefetcher
Heartbeat CPU 0 instructions: 10000001 cycles: 8411509 heartbeat IPC: 1.18885 cumulative IPC: 1.18885 (Simulation time: 0 hr 0 min 42 sec) 
Heartbeat CPU 0 instructions: 20000000 cycles: 16787213 heartbeat IPC: 1.19393 cumulative IPC: 1.19138 (Simulation time: 0 hr 1 min 29 sec) 

Warmup complete CPU 0 instructions: 20000001 cycles: 16787232 (Simulation time: 0 hr 1 min 29 sec) 

Heartbeat CPU 0 instructions: 30000000 cycles: 34531571 heartbeat IPC: 0.563559 cumulative IPC: 0.56356 (Simulation time: 0 hr 2 min 18 sec) 
Finished CPU 0 instructions: 10000003 cycles: 17744348 cumulative IPC: 0.56356 (Simulation time: 0 hr 2 min 18 sec) 

CPU 0 Branch Prediction Accuracy: 99.9933% MPKI: 0.0008

ChampSim completed all CPUs

Region of Interest Statistics

CPU 0 cumulative IPC: 0.56356 instructions: 10000003 cycles: 17744348
L1D TOTAL     ACCESS:    5609741  HIT:    5417345  MISS:     192396
L1D LOAD      ACCESS:    4968615  HIT:    4776219  MISS:     192396
L1D RFO       ACCESS:     641126  HIT:     641126  MISS:          0
L1D PREFETCH  ACCESS:          0  HIT:          0  MISS:          0
L1D WRITEBACK ACCESS:          0  HIT:          0  MISS:          0
L1D PREFETCH  REQUESTED:          0  ISSUED:          0  USEFUL:          0  USELESS:          0
L1I TOTAL     ACCESS:    2929090  HIT:    2929090  MISS:          0
L1I LOAD      ACCESS:    2929090  HIT:    2929090  MISS:          0
L1I RFO       ACCESS:          0  HIT:          0  MISS:          0
L1I PREFETCH  ACCESS:          0  HIT:          0  MISS:          0
L1I WRITEBACK ACCESS:          0  HIT:          0  MISS:          0
L1I PREFETCH  REQUESTED:          0  ISSUED:          0  USEFUL:          0  USELESS:          0
L2C TOTAL     ACCESS:     474660  HIT:     219112  MISS:     255548
L2C LOAD      ACCESS:     192397  HIT:     121946  MISS:      70451
L2C RFO       ACCESS:          0  HIT:          0  MISS:          0
L2C PREFETCH  ACCESS:     185098  HIT:          1  MISS:     185097
L2C WRITEBACK ACCESS:      97165  HIT:      97165  MISS:          0
L2C PREFETCH  REQUESTED:     568274  ISSUED:     568274  USEFUL:     374232  USELESS:     188494
LLC TOTAL     ACCESS:     354499  HIT:     131214  MISS:     223285
LLC LOAD      ACCESS:      68590  HIT:      11539  MISS:      57051
LLC RFO       ACCESS:          0  HIT:          0  MISS:          0
LLC PREFETCH  ACCESS:     188745  HIT:      22511  MISS:     166234
LLC WRITEBACK ACCESS:      97164  HIT:      97164  MISS:          0
LLC PREFETCH  REQUESTED:          0  ISSUED:          0  USEFUL:       1799  USELESS:     476922
Major fault: 0 Minor fault: 77691

L2C Best-offset prefetcher final stats

DRAM Statistics
 CHANNEL 0
 RQ ROW_BUFFER_HIT:     163580  ROW_BUFFER_MISS:      59705
 DBUS_CONGESTED:     177611
 WQ ROW_BUFFER_HIT:      22593  ROW_BUFFER_MISS:      74601  FULL:          0

 AVG_CONGESTED_CYCLE: 13
