
*** ChampSim Multicore Out-of-Order Simulator ***

Warmup Instructions: 200000000
Simulation Instructions: 1000000000
Number of CPUs: 4
LLC sets: 8192
LLC ways: 16
Off-chip DRAM Size: 8192 MB Channels: 2 Width: 64-bit Data Rate: 1600 MT/s

CPU 0 runs /home/ubuntu/PPF_Paper_Source_Code-master/traces/623.xalancbmk_s-10B.champsimtrace.xz
CPU 1 runs /home/ubuntu/PPF_Paper_Source_Code-master/traces/649.fotonik3d_s-10881B.champsimtrace.xz
CPU 2 runs /home/ubuntu/PPF_Paper_Source_Code-master/traces/603.bwaves_s-1080B.champsimtrace.xz
CPU 3 runs /home/ubuntu/PPF_Paper_Source_Code-master/traces/605.mcf_s-1152B.champsimtrace.xz
L2C DA-AMPM prefetcher
L2C DA-AMPM prefetcher
L2C DA-AMPM prefetcher
L2C DA-AMPM prefetcher
Heartbeat CPU 2 instructions: 10000003 cycles: 4334733 heartbeat IPC: 2.30695 cumulative IPC: 2.30695 (Simulation time: 0 hr 1 min 0 sec) 
Heartbeat CPU 0 instructions: 10000001 cycles: 4873528 heartbeat IPC: 2.0519 cumulative IPC: 2.0519 (Simulation time: 0 hr 1 min 9 sec) 
Heartbeat CPU 3 instructions: 10000001 cycles: 6546187 heartbeat IPC: 1.52761 cumulative IPC: 1.52761 (Simulation time: 0 hr 1 min 34 sec) 
Heartbeat CPU 1 instructions: 10000001 cycles: 8414062 heartbeat IPC: 1.18849 cumulative IPC: 1.18849 (Simulation time: 0 hr 2 min 0 sec) 
Heartbeat CPU 2 instructions: 20000000 cycles: 8838284 heartbeat IPC: 2.22047 cumulative IPC: 2.26288 (Simulation time: 0 hr 2 min 6 sec) 
Heartbeat CPU 0 instructions: 20000000 cycles: 9672668 heartbeat IPC: 2.08371 cumulative IPC: 2.06768 (Simulation time: 0 hr 2 min 17 sec) 
Heartbeat CPU 2 instructions: 30000000 cycles: 12796125 heartbeat IPC: 2.52663 cumulative IPC: 2.34446 (Simulation time: 0 hr 2 min 59 sec) 
Heartbeat CPU 3 instructions: 20000000 cycles: 13093426 heartbeat IPC: 1.52736 cumulative IPC: 1.52748 (Simulation time: 0 hr 3 min 3 sec) 
Heartbeat CPU 0 instructions: 30000000 cycles: 14571642 heartbeat IPC: 2.04124 cumulative IPC: 2.05879 (Simulation time: 0 hr 3 min 23 sec) 
Heartbeat CPU 2 instructions: 40000000 cycles: 16751483 heartbeat IPC: 2.52822 cumulative IPC: 2.38785 (Simulation time: 0 hr 3 min 52 sec) 
Heartbeat CPU 1 instructions: 20000000 cycles: 16799149 heartbeat IPC: 1.19259 cumulative IPC: 1.19054 (Simulation time: 0 hr 3 min 52 sec) 
Heartbeat CPU 0 instructions: 40000000 cycles: 19496824 heartbeat IPC: 2.03038 cumulative IPC: 2.05162 (Simulation time: 0 hr 4 min 28 sec) 
Heartbeat CPU 3 instructions: 30000001 cycles: 19627266 heartbeat IPC: 1.53049 cumulative IPC: 1.52849 (Simulation time: 0 hr 4 min 29 sec) 
Heartbeat CPU 2 instructions: 50000000 cycles: 20725108 heartbeat IPC: 2.51659 cumulative IPC: 2.41253 (Simulation time: 0 hr 4 min 44 sec) 
Heartbeat CPU 0 instructions: 50000001 cycles: 24400126 heartbeat IPC: 2.03944 cumulative IPC: 2.04917 (Simulation time: 0 hr 5 min 34 sec) 
Heartbeat CPU 2 instructions: 60000000 cycles: 24717346 heartbeat IPC: 2.50486 cumulative IPC: 2.42745 (Simulation time: 0 hr 5 min 38 sec) 
Heartbeat CPU 1 instructions: 30000000 cycles: 25174233 heartbeat IPC: 1.19402 cumulative IPC: 1.19169 (Simulation time: 0 hr 5 min 44 sec) 
Heartbeat CPU 3 instructions: 40000000 cycles: 26169047 heartbeat IPC: 1.52864 cumulative IPC: 1.52852 (Simulation time: 0 hr 5 min 59 sec) 
Heartbeat CPU 2 instructions: 70000000 cycles: 28703962 heartbeat IPC: 2.50839 cumulative IPC: 2.43869 (Simulation time: 0 hr 6 min 34 sec) 
Heartbeat CPU 0 instructions: 60000000 cycles: 29211174 heartbeat IPC: 2.07855 cumulative IPC: 2.05401 (Simulation time: 0 hr 6 min 41 sec) 
Heartbeat CPU 2 instructions: 80000000 cycles: 32692603 heartbeat IPC: 2.50712 cumulative IPC: 2.44704 (Simulation time: 0 hr 7 min 27 sec) 
Heartbeat CPU 3 instructions: 50000000 cycles: 32705162 heartbeat IPC: 1.52996 cumulative IPC: 1.52881 (Simulation time: 0 hr 7 min 28 sec) 
Heartbeat CPU 1 instructions: 40000000 cycles: 33561224 heartbeat IPC: 1.19232 cumulative IPC: 1.19185 (Simulation time: 0 hr 7 min 39 sec) 
Heartbeat CPU 0 instructions: 70000000 cycles: 34215301 heartbeat IPC: 1.99835 cumulative IPC: 2.04587 (Simulation time: 0 hr 7 min 49 sec) 
Heartbeat CPU 2 instructions: 90000000 cycles: 36686925 heartbeat IPC: 2.50355 cumulative IPC: 2.45319 (Simulation time: 0 hr 8 min 23 sec) 
Heartbeat CPU 0 instructions: 80000000 cycles: 39010782 heartbeat IPC: 2.0853 cumulative IPC: 2.05072 (Simulation time: 0 hr 8 min 55 sec) 
Heartbeat CPU 3 instructions: 60000000 cycles: 39234017 heartbeat IPC: 1.53166 cumulative IPC: 1.52929 (Simulation time: 0 hr 8 min 58 sec) 
Heartbeat CPU 2 instructions: 100000000 cycles: 40673819 heartbeat IPC: 2.50822 cumulative IPC: 2.45858 (Simulation time: 0 hr 9 min 17 sec) 
Heartbeat CPU 1 instructions: 50000001 cycles: 41982830 heartbeat IPC: 1.18742 cumulative IPC: 1.19096 (Simulation time: 0 hr 9 min 36 sec) 
Heartbeat CPU 0 instructions: 90000001 cycles: 43966004 heartbeat IPC: 2.01807 cumulative IPC: 2.04704 (Simulation time: 0 hr 10 min 4 sec) 
Heartbeat CPU 2 instructions: 110000001 cycles: 44645187 heartbeat IPC: 2.51802 cumulative IPC: 2.46387 (Simulation time: 0 hr 10 min 13 sec) 
Heartbeat CPU 3 instructions: 70000000 cycles: 45779287 heartbeat IPC: 1.52782 cumulative IPC: 1.52908 (Simulation time: 0 hr 10 min 29 sec) 
Heartbeat CPU 2 instructions: 120000000 cycles: 48603879 heartbeat IPC: 2.52609 cumulative IPC: 2.46894 (Simulation time: 0 hr 11 min 7 sec) 
Heartbeat CPU 0 instructions: 100000000 cycles: 48922022 heartbeat IPC: 2.01775 cumulative IPC: 2.04407 (Simulation time: 0 hr 11 min 12 sec) 
Heartbeat CPU 1 instructions: 60000000 cycles: 50369481 heartbeat IPC: 1.19237 cumulative IPC: 1.1912 (Simulation time: 0 hr 11 min 31 sec) 
Heartbeat CPU 3 instructions: 80000000 cycles: 52296635 heartbeat IPC: 1.53437 cumulative IPC: 1.52974 (Simulation time: 0 hr 11 min 57 sec) 
Heartbeat CPU 2 instructions: 130000002 cycles: 52556686 heartbeat IPC: 2.52985 cumulative IPC: 2.47352 (Simulation time: 0 hr 12 min 0 sec) 
Heartbeat CPU 0 instructions: 110000000 cycles: 53973890 heartbeat IPC: 1.97947 cumulative IPC: 2.03802 (Simulation time: 0 hr 12 min 20 sec) 
Heartbeat CPU 2 instructions: 140000000 cycles: 56513163 heartbeat IPC: 2.5275 cumulative IPC: 2.4773 (Simulation time: 0 hr 12 min 54 sec) 
Heartbeat CPU 1 instructions: 70000003 cycles: 58744035 heartbeat IPC: 1.19409 cumulative IPC: 1.19161 (Simulation time: 0 hr 13 min 24 sec) 
Heartbeat CPU 0 instructions: 120000000 cycles: 58787630 heartbeat IPC: 2.07739 cumulative IPC: 2.04125 (Simulation time: 0 hr 13 min 25 sec) 
Heartbeat CPU 3 instructions: 90000002 cycles: 58810815 heartbeat IPC: 1.53511 cumulative IPC: 1.53033 (Simulation time: 0 hr 13 min 25 sec) 
Heartbeat CPU 2 instructions: 150000002 cycles: 60491939 heartbeat IPC: 2.51334 cumulative IPC: 2.47967 (Simulation time: 0 hr 13 min 49 sec) 
Heartbeat CPU 0 instructions: 130000003 cycles: 63642082 heartbeat IPC: 2.05997 cumulative IPC: 2.04267 (Simulation time: 0 hr 14 min 33 sec) 
Heartbeat CPU 2 instructions: 160000000 cycles: 64470833 heartbeat IPC: 2.51326 cumulative IPC: 2.48174 (Simulation time: 0 hr 14 min 44 sec) 
Heartbeat CPU 3 instructions: 100000000 cycles: 65314196 heartbeat IPC: 1.53766 cumulative IPC: 1.53106 (Simulation time: 0 hr 14 min 55 sec) 
Heartbeat CPU 1 instructions: 80000000 cycles: 67135854 heartbeat IPC: 1.19164 cumulative IPC: 1.19161 (Simulation time: 0 hr 15 min 21 sec) 
Heartbeat CPU 2 instructions: 170000003 cycles: 68467474 heartbeat IPC: 2.5021 cumulative IPC: 2.48293 (Simulation time: 0 hr 15 min 39 sec) 
Heartbeat CPU 0 instructions: 140000000 cycles: 68656848 heartbeat IPC: 1.99411 cumulative IPC: 2.03913 (Simulation time: 0 hr 15 min 42 sec) 
Heartbeat CPU 3 instructions: 110000000 cycles: 71810707 heartbeat IPC: 1.53929 cumulative IPC: 1.53181 (Simulation time: 0 hr 16 min 24 sec) 
Heartbeat CPU 2 instructions: 180000000 cycles: 72444105 heartbeat IPC: 2.51469 cumulative IPC: 2.48467 (Simulation time: 0 hr 16 min 33 sec) 
Heartbeat CPU 0 instructions: 150000000 cycles: 73608043 heartbeat IPC: 2.01971 cumulative IPC: 2.03782 (Simulation time: 0 hr 16 min 47 sec) 
Heartbeat CPU 1 instructions: 90000001 cycles: 75541001 heartbeat IPC: 1.18975 cumulative IPC: 1.19141 (Simulation time: 0 hr 17 min 14 sec) 
Heartbeat CPU 2 instructions: 190000002 cycles: 76437849 heartbeat IPC: 2.50392 cumulative IPC: 2.48568 (Simulation time: 0 hr 17 min 26 sec) 
Heartbeat CPU 3 instructions: 120000000 cycles: 78302822 heartbeat IPC: 1.54033 cumulative IPC: 1.53251 (Simulation time: 0 hr 17 min 52 sec) 
Heartbeat CPU 0 instructions: 160000000 cycles: 78498805 heartbeat IPC: 2.04467 cumulative IPC: 2.03825 (Simulation time: 0 hr 17 min 55 sec) 
Heartbeat CPU 2 instructions: 200000000 cycles: 80433676 heartbeat IPC: 2.50261 cumulative IPC: 2.48652 (Simulation time: 0 hr 18 min 22 sec) 
Heartbeat CPU 0 instructions: 170000000 cycles: 83275246 heartbeat IPC: 2.09361 cumulative IPC: 2.04142 (Simulation time: 0 hr 19 min 2 sec) 
Heartbeat CPU 1 instructions: 100000000 cycles: 83923088 heartbeat IPC: 1.19302 cumulative IPC: 1.19157 (Simulation time: 0 hr 19 min 11 sec) 
Heartbeat CPU 2 instructions: 210000003 cycles: 84412675 heartbeat IPC: 2.5132 cumulative IPC: 0.118466 (Simulation time: 0 hr 19 min 17 sec) 
Heartbeat CPU 3 instructions: 130000001 cycles: 84764862 heartbeat IPC: 1.5475 cumulative IPC: 1.53365 (Simulation time: 0 hr 19 min 22 sec) 
Heartbeat CPU 0 instructions: 180000000 cycles: 88175339 heartbeat IPC: 2.04078 cumulative IPC: 2.04139 (Simulation time: 0 hr 20 min 10 sec) 
Heartbeat CPU 2 instructions: 220000000 cycles: 88408375 heartbeat IPC: 2.50269 cumulative IPC: 0.226223 (Simulation time: 0 hr 20 min 13 sec) 
Heartbeat CPU 3 instructions: 140000000 cycles: 91209295 heartbeat IPC: 1.55173 cumulative IPC: 1.53493 (Simulation time: 0 hr 20 min 52 sec) 
Heartbeat CPU 1 instructions: 110000002 cycles: 92312368 heartbeat IPC: 1.192 cumulative IPC: 1.19161 (Simulation time: 0 hr 21 min 7 sec) 
Heartbeat CPU 2 instructions: 230000000 cycles: 92392203 heartbeat IPC: 2.51015 cumulative IPC: 0.324703 (Simulation time: 0 hr 21 min 8 sec) 
Heartbeat CPU 0 instructions: 190000001 cycles: 93044195 heartbeat IPC: 2.05387 cumulative IPC: 2.04204 (Simulation time: 0 hr 21 min 17 sec) 
Heartbeat CPU 2 instructions: 240000000 cycles: 96384158 heartbeat IPC: 2.50504 cumulative IPC: 0.415006 (Simulation time: 0 hr 22 min 3 sec) 
Heartbeat CPU 3 instructions: 150000000 cycles: 97570005 heartbeat IPC: 1.57215 cumulative IPC: 1.53736 (Simulation time: 0 hr 22 min 19 sec) 
Heartbeat CPU 0 instructions: 200000000 cycles: 98011239 heartbeat IPC: 2.01327 cumulative IPC: 2.04058 (Simulation time: 0 hr 22 min 26 sec) 
Heartbeat CPU 2 instructions: 250000003 cycles: 100374778 heartbeat IPC: 2.50588 cumulative IPC: 0.498133 (Simulation time: 0 hr 22 min 58 sec) 
Heartbeat CPU 1 instructions: 120000000 cycles: 100710113 heartbeat IPC: 1.1908 cumulative IPC: 1.19154 (Simulation time: 0 hr 23 min 2 sec) 
Heartbeat CPU 0 instructions: 210000000 cycles: 102875374 heartbeat IPC: 2.05586 cumulative IPC: 0.097205 (Simulation time: 0 hr 23 min 32 sec) 
Heartbeat CPU 3 instructions: 160000000 cycles: 103863484 heartbeat IPC: 1.58895 cumulative IPC: 1.54048 (Simulation time: 0 hr 23 min 46 sec) 
Heartbeat CPU 2 instructions: 260000000 cycles: 104361341 heartbeat IPC: 2.50843 cumulative IPC: 0.574926 (Simulation time: 0 hr 23 min 53 sec) 
Heartbeat CPU 0 instructions: 220000000 cycles: 107921466 heartbeat IPC: 1.98173 cumulative IPC: 0.18532 (Simulation time: 0 hr 24 min 42 sec) 
Heartbeat CPU 2 instructions: 270000002 cycles: 108354664 heartbeat IPC: 2.50418 cumulative IPC: 0.646027 (Simulation time: 0 hr 24 min 48 sec) 
Heartbeat CPU 1 instructions: 130000001 cycles: 109113898 heartbeat IPC: 1.18994 cumulative IPC: 1.19142 (Simulation time: 0 hr 24 min 58 sec) 
Heartbeat CPU 3 instructions: 170000000 cycles: 110137284 heartbeat IPC: 1.59393 cumulative IPC: 1.54353 (Simulation time: 0 hr 25 min 12 sec) 
Heartbeat CPU 2 instructions: 280000000 cycles: 112343981 heartbeat IPC: 2.50669 cumulative IPC: 0.712099 (Simulation time: 0 hr 25 min 44 sec) 
Heartbeat CPU 0 instructions: 230000003 cycles: 112885634 heartbeat IPC: 2.01444 cumulative IPC: 0.265756 (Simulation time: 0 hr 25 min 51 sec) 
Heartbeat CPU 3 instructions: 180000000 cycles: 116310156 heartbeat IPC: 1.61999 cumulative IPC: 1.54759 (Simulation time: 0 hr 26 min 40 sec) 
Heartbeat CPU 2 instructions: 290000001 cycles: 116327643 heartbeat IPC: 2.51025 cumulative IPC: 0.773677 (Simulation time: 0 hr 26 min 40 sec) 
Heartbeat CPU 1 instructions: 140000000 cycles: 117497857 heartbeat IPC: 1.19275 cumulative IPC: 1.19151 (Simulation time: 0 hr 26 min 58 sec) 
Heartbeat CPU 0 instructions: 240000000 cycles: 117869567 heartbeat IPC: 2.00645 cumulative IPC: 0.339358 (Simulation time: 0 hr 27 min 3 sec) 
Heartbeat CPU 2 instructions: 300000000 cycles: 120320622 heartbeat IPC: 2.5044 cumulative IPC: 0.831113 (Simulation time: 0 hr 27 min 39 sec) 
Heartbeat CPU 3 instructions: 190000001 cycles: 122525390 heartbeat IPC: 1.60895 cumulative IPC: 1.5507 (Simulation time: 0 hr 28 min 10 sec) 
Heartbeat CPU 0 instructions: 250000002 cycles: 122793413 heartbeat IPC: 2.03093 cumulative IPC: 0.407188 (Simulation time: 0 hr 28 min 14 sec) 
Heartbeat CPU 2 instructions: 310000001 cycles: 124305438 heartbeat IPC: 2.50953 cumulative IPC: 0.884917 (Simulation time: 0 hr 28 min 36 sec) 
Heartbeat CPU 1 instructions: 150000002 cycles: 125871877 heartbeat IPC: 1.19417 cumulative IPC: 1.19169 (Simulation time: 0 hr 28 min 58 sec) 
Heartbeat CPU 0 instructions: 260000000 cycles: 127756946 heartbeat IPC: 2.01469 cumulative IPC: 0.469642 (Simulation time: 0 hr 29 min 24 sec) 
Heartbeat CPU 2 instructions: 320000000 cycles: 128297740 heartbeat IPC: 2.50482 cumulative IPC: 0.935324 (Simulation time: 0 hr 29 min 32 sec) 
Heartbeat CPU 3 instructions: 200000000 cycles: 128757702 heartbeat IPC: 1.60454 cumulative IPC: 1.55331 (Simulation time: 0 hr 29 min 38 sec) 
Heartbeat CPU 2 instructions: 330000003 cycles: 132278622 heartbeat IPC: 2.51201 cumulative IPC: 0.982774 (Simulation time: 0 hr 30 min 28 sec) 
Heartbeat CPU 0 instructions: 270000000 cycles: 132789746 heartbeat IPC: 1.98697 cumulative IPC: 0.527149 (Simulation time: 0 hr 30 min 35 sec) 
Heartbeat CPU 1 instructions: 160000000 cycles: 134270966 heartbeat IPC: 1.19061 cumulative IPC: 1.19162 (Simulation time: 0 hr 30 min 57 sec) 
Heartbeat CPU 3 instructions: 210000002 cycles: 135004691 heartbeat IPC: 1.60077 cumulative IPC: 0.0740715 (Simulation time: 0 hr 31 min 7 sec) 
Heartbeat CPU 2 instructions: 340000000 cycles: 136254460 heartbeat IPC: 2.51519 cumulative IPC: 1.02749 (Simulation time: 0 hr 31 min 24 sec) 
Heartbeat CPU 0 instructions: 280000000 cycles: 137670713 heartbeat IPC: 2.04877 cumulative IPC: 0.581097 (Simulation time: 0 hr 31 min 45 sec) 
Heartbeat CPU 2 instructions: 350000000 cycles: 140211923 heartbeat IPC: 2.52687 cumulative IPC: 1.06981 (Simulation time: 0 hr 32 min 20 sec) 
Heartbeat CPU 3 instructions: 220000000 cycles: 141250732 heartbeat IPC: 1.60101 cumulative IPC: 0.141592 (Simulation time: 0 hr 32 min 35 sec) 
Heartbeat CPU 0 instructions: 290000000 cycles: 142513614 heartbeat IPC: 2.06488 cumulative IPC: 0.631519 (Simulation time: 0 hr 32 min 53 sec) 
Heartbeat CPU 1 instructions: 170000000 cycles: 142679304 heartbeat IPC: 1.1893 cumulative IPC: 1.19148 (Simulation time: 0 hr 32 min 55 sec) 
Heartbeat CPU 2 instructions: 360000000 cycles: 144164336 heartbeat IPC: 2.5301 cumulative IPC: 1.10984 (Simulation time: 0 hr 33 min 17 sec) 
Heartbeat CPU 3 instructions: 230000001 cycles: 147542349 heartbeat IPC: 1.58942 cumulative IPC: 0.203331 (Simulation time: 0 hr 34 min 4 sec) 
Heartbeat CPU 0 instructions: 300000000 cycles: 147555982 heartbeat IPC: 1.9832 cumulative IPC: 0.677709 (Simulation time: 0 hr 34 min 4 sec) 
Heartbeat CPU 2 instructions: 370000002 cycles: 148121971 heartbeat IPC: 2.52676 cumulative IPC: 1.1477 (Simulation time: 0 hr 34 min 12 sec) 
Heartbeat CPU 1 instructions: 180000000 cycles: 151054039 heartbeat IPC: 1.19407 cumulative IPC: 1.19163 (Simulation time: 0 hr 34 min 54 sec) 
Heartbeat CPU 2 instructions: 380000000 cycles: 152091021 heartbeat IPC: 2.51949 cumulative IPC: 1.1835 (Simulation time: 0 hr 35 min 9 sec) 
Heartbeat CPU 0 instructions: 310000003 cycles: 152444887 heartbeat IPC: 2.04545 cumulative IPC: 0.721572 (Simulation time: 0 hr 35 min 14 sec) 
Heartbeat CPU 3 instructions: 240000000 cycles: 153879800 heartbeat IPC: 1.57792 cumulative IPC: 0.259943 (Simulation time: 0 hr 35 min 35 sec) 
Heartbeat CPU 2 instructions: 390000003 cycles: 156086336 heartbeat IPC: 2.50293 cumulative IPC: 1.21728 (Simulation time: 0 hr 36 min 6 sec) 
Heartbeat CPU 0 instructions: 320000000 cycles: 157381546 heartbeat IPC: 2.02566 cumulative IPC: 0.762478 (Simulation time: 0 hr 36 min 24 sec) 
Heartbeat CPU 1 instructions: 190000001 cycles: 159441047 heartbeat IPC: 1.19232 cumulative IPC: 1.19166 (Simulation time: 0 hr 36 min 52 sec) 
Heartbeat CPU 2 instructions: 400000000 cycles: 160072282 heartbeat IPC: 2.50881 cumulative IPC: 1.24944 (Simulation time: 0 hr 37 min 2 sec) 
Heartbeat CPU 3 instructions: 250000000 cycles: 160254743 heartbeat IPC: 1.56864 cumulative IPC: 0.312003 (Simulation time: 0 hr 37 min 4 sec) 
Heartbeat CPU 0 instructions: 330000003 cycles: 162190372 heartbeat IPC: 2.07951 cumulative IPC: 0.801527 (Simulation time: 0 hr 37 min 31 sec) 
Heartbeat CPU 2 instructions: 410000000 cycles: 164063801 heartbeat IPC: 2.50531 cumulative IPC: 1.27999 (Simulation time: 0 hr 37 min 56 sec) 
Heartbeat CPU 3 instructions: 260000000 cycles: 166636294 heartbeat IPC: 1.56702 cumulative IPC: 0.360066 (Simulation time: 0 hr 38 min 31 sec) 
Heartbeat CPU 0 instructions: 340000000 cycles: 167243276 heartbeat IPC: 1.97906 cumulative IPC: 0.837104 (Simulation time: 0 hr 38 min 39 sec) 
Heartbeat CPU 1 instructions: 200000000 cycles: 167840277 heartbeat IPC: 1.19059 cumulative IPC: 1.19161 (Simulation time: 0 hr 38 min 47 sec) 

Warmup complete CPU 0 instructions: 341042266 cycles: 167840296 (Simulation time: 0 hr 38 min 47 sec) 
Warmup complete CPU 1 instructions: 200000001 cycles: 167840296 (Simulation time: 0 hr 38 min 47 sec) 
Warmup complete CPU 2 instructions: 419473199 cycles: 167840295 (Simulation time: 0 hr 38 min 47 sec) 
Warmup complete CPU 3 instructions: 261879304 cycles: 167840295 (Simulation time: 0 hr 38 min 47 sec) 

Heartbeat CPU 2 instructions: 420000000 cycles: 168307893 heartbeat IPC: 2.35622 cumulative IPC: 1.12661 (Simulation time: 0 hr 38 min 50 sec) 
Heartbeat CPU 2 instructions: 430000002 cycles: 177136068 heartbeat IPC: 1.13274 cumulative IPC: 1.13243 (Simulation time: 0 hr 39 min 41 sec) 
Heartbeat CPU 2 instructions: 440000000 cycles: 185692806 heartbeat IPC: 1.16867 cumulative IPC: 1.1498 (Simulation time: 0 hr 40 min 31 sec) 
Heartbeat CPU 1 instructions: 210000002 cycles: 190598853 heartbeat IPC: 0.439395 cumulative IPC: 0.439395 (Simulation time: 0 hr 41 min 1 sec) 
Heartbeat CPU 2 instructions: 450000001 cycles: 194223782 heartbeat IPC: 1.1722 cumulative IPC: 1.15704 (Simulation time: 0 hr 41 min 22 sec) 
Heartbeat CPU 3 instructions: 270000000 cycles: 195186545 heartbeat IPC: 0.35026 cumulative IPC: 0.296958 (Simulation time: 0 hr 41 min 27 sec) 
Heartbeat CPU 2 instructions: 460000000 cycles: 202762767 heartbeat IPC: 1.1711 cumulative IPC: 1.16048 (Simulation time: 0 hr 42 min 13 sec) 
Heartbeat CPU 0 instructions: 350000002 cycles: 208502543 heartbeat IPC: 0.24237 cumulative IPC: 0.220296 (Simulation time: 0 hr 42 min 47 sec) 
Heartbeat CPU 2 instructions: 470000000 cycles: 213310957 heartbeat IPC: 0.94803 cumulative IPC: 1.1112 (Simulation time: 0 hr 43 min 17 sec) 
Heartbeat CPU 1 instructions: 220000000 cycles: 213916746 heartbeat IPC: 0.428855 cumulative IPC: 0.434061 (Simulation time: 0 hr 43 min 20 sec) 
Heartbeat CPU 2 instructions: 480000000 cycles: 222619937 heartbeat IPC: 1.07423 cumulative IPC: 1.10491 (Simulation time: 0 hr 44 min 10 sec) 
Heartbeat CPU 3 instructions: 280000000 cycles: 229611217 heartbeat IPC: 0.290489 cumulative IPC: 0.293353 (Simulation time: 0 hr 44 min 52 sec) 
Heartbeat CPU 2 instructions: 490000000 cycles: 231455765 heartbeat IPC: 1.13176 cumulative IPC: 1.10864 (Simulation time: 0 hr 45 min 2 sec) 
Heartbeat CPU 1 instructions: 230000002 cycles: 237134003 heartbeat IPC: 0.430714 cumulative IPC: 0.43294 (Simulation time: 0 hr 45 min 35 sec) 
Heartbeat CPU 2 instructions: 500000000 cycles: 240334070 heartbeat IPC: 1.12634 cumulative IPC: 1.11081 (Simulation time: 0 hr 45 min 53 sec) 
Heartbeat CPU 0 instructions: 360000000 cycles: 246624065 heartbeat IPC: 0.262319 cumulative IPC: 0.24063 (Simulation time: 0 hr 46 min 30 sec) 
Heartbeat CPU 2 instructions: 510000003 cycles: 249291189 heartbeat IPC: 1.11643 cumulative IPC: 1.11143 (Simulation time: 0 hr 46 min 44 sec) 
Heartbeat CPU 2 instructions: 520000000 cycles: 258246544 heartbeat IPC: 1.11665 cumulative IPC: 1.11195 (Simulation time: 0 hr 47 min 35 sec) 
Heartbeat CPU 1 instructions: 240000000 cycles: 260018478 heartbeat IPC: 0.436977 cumulative IPC: 0.433942 (Simulation time: 0 hr 47 min 45 sec) 
Heartbeat CPU 3 instructions: 290000000 cycles: 263476188 heartbeat IPC: 0.29529 cumulative IPC: 0.294039 (Simulation time: 0 hr 48 min 6 sec) 
Heartbeat CPU 2 instructions: 530000001 cycles: 267789028 heartbeat IPC: 1.04795 cumulative IPC: 1.10583 (Simulation time: 0 hr 48 min 31 sec) 
Heartbeat CPU 2 instructions: 540000000 cycles: 277426169 heartbeat IPC: 1.03765 cumulative IPC: 1.09984 (Simulation time: 0 hr 49 min 26 sec) 
Heartbeat CPU 1 instructions: 250000001 cycles: 282813394 heartbeat IPC: 0.438694 cumulative IPC: 0.434884 (Simulation time: 0 hr 49 min 57 sec) 
Heartbeat CPU 2 instructions: 550000000 cycles: 287045939 heartbeat IPC: 1.03953 cumulative IPC: 1.09497 (Simulation time: 0 hr 50 min 21 sec) 
Heartbeat CPU 0 instructions: 370000002 cycles: 288118715 heartbeat IPC: 0.240995 cumulative IPC: 0.240756 (Simulation time: 0 hr 50 min 27 sec) 
Heartbeat CPU 2 instructions: 560000000 cycles: 296649917 heartbeat IPC: 1.04124 cumulative IPC: 1.09097 (Simulation time: 0 hr 51 min 17 sec) 
Heartbeat CPU 3 instructions: 300000000 cycles: 297099507 heartbeat IPC: 0.297413 cumulative IPC: 0.294917 (Simulation time: 0 hr 51 min 19 sec) 
Heartbeat CPU 1 instructions: 260000000 cycles: 305745314 heartbeat IPC: 0.436073 cumulative IPC: 0.435082 (Simulation time: 0 hr 52 min 11 sec) 
Heartbeat CPU 2 instructions: 570000002 cycles: 306277401 heartbeat IPC: 1.03869 cumulative IPC: 1.08733 (Simulation time: 0 hr 52 min 14 sec) 
Heartbeat CPU 2 instructions: 580000000 cycles: 315881005 heartbeat IPC: 1.04128 cumulative IPC: 1.08434 (Simulation time: 0 hr 53 min 9 sec) 
Heartbeat CPU 2 instructions: 590000000 cycles: 325556200 heartbeat IPC: 1.03357 cumulative IPC: 1.08123 (Simulation time: 0 hr 54 min 7 sec) 
Heartbeat CPU 1 instructions: 270000001 cycles: 328689301 heartbeat IPC: 0.435844 cumulative IPC: 0.435191 (Simulation time: 0 hr 54 min 25 sec) 
Heartbeat CPU 0 instructions: 380000000 cycles: 329359161 heartbeat IPC: 0.24248 cumulative IPC: 0.241196 (Simulation time: 0 hr 54 min 29 sec) 
Heartbeat CPU 3 instructions: 310000003 cycles: 330931897 heartbeat IPC: 0.295575 cumulative IPC: 0.295053 (Simulation time: 0 hr 54 min 38 sec) 
Heartbeat CPU 2 instructions: 600000000 cycles: 335237458 heartbeat IPC: 1.03292 cumulative IPC: 1.07843 (Simulation time: 0 hr 55 min 3 sec) 
Heartbeat CPU 2 instructions: 610000003 cycles: 344915726 heartbeat IPC: 1.03324 cumulative IPC: 1.07596 (Simulation time: 0 hr 55 min 57 sec) 
Heartbeat CPU 2 instructions: 620000000 cycles: 354599029 heartbeat IPC: 1.03271 cumulative IPC: 1.07372 (Simulation time: 0 hr 56 min 43 sec) 
Heartbeat CPU 2 instructions: 630000002 cycles: 364279183 heartbeat IPC: 1.03304 cumulative IPC: 1.07172 (Simulation time: 0 hr 57 min 29 sec) 
Heartbeat CPU 3 instructions: 320000000 cycles: 365720112 heartbeat IPC: 0.287454 cumulative IPC: 0.293717 (Simulation time: 0 hr 57 min 35 sec) 
Heartbeat CPU 2 instructions: 640000000 cycles: 373858780 heartbeat IPC: 1.04388 cumulative IPC: 1.07042 (Simulation time: 0 hr 58 min 12 sec) 
Heartbeat CPU 0 instructions: 390000000 cycles: 375268293 heartbeat IPC: 0.217822 cumulative IPC: 0.236023 (Simulation time: 0 hr 58 min 18 sec) 
Heartbeat CPU 1 instructions: 280000000 cycles: 377590852 heartbeat IPC: 0.204492 cumulative IPC: 0.381405 (Simulation time: 0 hr 58 min 29 sec) 
Heartbeat CPU 2 instructions: 650000000 cycles: 382807857 heartbeat IPC: 1.11743 cumulative IPC: 1.07238 (Simulation time: 0 hr 58 min 53 sec) 
Heartbeat CPU 2 instructions: 660000000 cycles: 391677118 heartbeat IPC: 1.12749 cumulative IPC: 1.07456 (Simulation time: 0 hr 59 min 34 sec) 
Heartbeat CPU 3 instructions: 330000002 cycles: 400720164 heartbeat IPC: 0.285714 cumulative IPC: 0.292514 (Simulation time: 1 hr 0 min 15 sec) 
Heartbeat CPU 2 instructions: 670000000 cycles: 400887128 heartbeat IPC: 1.08578 cumulative IPC: 1.07501 (Simulation time: 1 hr 0 min 16 sec) 
Heartbeat CPU 2 instructions: 680000000 cycles: 409722483 heartbeat IPC: 1.13182 cumulative IPC: 1.07708 (Simulation time: 1 hr 0 min 57 sec) 
Heartbeat CPU 2 instructions: 690000000 cycles: 418519403 heartbeat IPC: 1.13676 cumulative IPC: 1.07918 (Simulation time: 1 hr 1 min 36 sec) 
Heartbeat CPU 0 instructions: 400000000 cycles: 421711316 heartbeat IPC: 0.215318 cumulative IPC: 0.232235 (Simulation time: 1 hr 1 min 50 sec) 
Heartbeat CPU 2 instructions: 700000000 cycles: 427310894 heartbeat IPC: 1.13746 cumulative IPC: 1.08115 (Simulation time: 1 hr 2 min 24 sec) 
Heartbeat CPU 1 instructions: 290000000 cycles: 433880498 heartbeat IPC: 0.177653 cumulative IPC: 0.338295 (Simulation time: 1 hr 3 min 3 sec) 
Heartbeat CPU 3 instructions: 340000000 cycles: 435387443 heartbeat IPC: 0.288456 cumulative IPC: 0.291989 (Simulation time: 1 hr 3 min 12 sec) 
Heartbeat CPU 2 instructions: 710000002 cycles: 436105050 heartbeat IPC: 1.13712 cumulative IPC: 1.08299 (Simulation time: 1 hr 3 min 16 sec) 
Heartbeat CPU 2 instructions: 720000000 cycles: 444972209 heartbeat IPC: 1.12776 cumulative IPC: 1.08442 (Simulation time: 1 hr 4 min 8 sec) 
Heartbeat CPU 2 instructions: 730000003 cycles: 455832885 heartbeat IPC: 0.920753 cumulative IPC: 1.07825 (Simulation time: 1 hr 5 min 14 sec) 
Heartbeat CPU 1 instructions: 300000000 cycles: 458015035 heartbeat IPC: 0.414344 cumulative IPC: 0.34462 (Simulation time: 1 hr 5 min 26 sec) 
Heartbeat CPU 0 instructions: 410000001 cycles: 463947811 heartbeat IPC: 0.236762 cumulative IPC: 0.232881 (Simulation time: 1 hr 6 min 0 sec) 
Heartbeat CPU 2 instructions: 740000000 cycles: 464821978 heartbeat IPC: 1.11246 cumulative IPC: 1.07928 (Simulation time: 1 hr 6 min 5 sec) 
Heartbeat CPU 3 instructions: 350000001 cycles: 469879372 heartbeat IPC: 0.289923 cumulative IPC: 0.291753 (Simulation time: 1 hr 6 min 34 sec) 
Heartbeat CPU 2 instructions: 750000001 cycles: 473575220 heartbeat IPC: 1.14243 cumulative IPC: 1.08109 (Simulation time: 1 hr 6 min 56 sec) 
Heartbeat CPU 1 instructions: 310000002 cycles: 481928217 heartbeat IPC: 0.418179 cumulative IPC: 0.35022 (Simulation time: 1 hr 7 min 44 sec) 
Heartbeat CPU 2 instructions: 760000000 cycles: 482344293 heartbeat IPC: 1.14037 cumulative IPC: 1.08274 (Simulation time: 1 hr 7 min 46 sec) 
Heartbeat CPU 2 instructions: 770000003 cycles: 491098005 heartbeat IPC: 1.14237 cumulative IPC: 1.08436 (Simulation time: 1 hr 8 min 35 sec) 
Heartbeat CPU 2 instructions: 780000000 cycles: 499910326 heartbeat IPC: 1.13477 cumulative IPC: 1.0857 (Simulation time: 1 hr 9 min 26 sec) 
Heartbeat CPU 3 instructions: 360000000 cycles: 503284756 heartbeat IPC: 0.299353 cumulative IPC: 0.29251 (Simulation time: 1 hr 9 min 45 sec) 
Heartbeat CPU 1 instructions: 320000000 cycles: 505528325 heartbeat IPC: 0.423727 cumulative IPC: 0.355358 (Simulation time: 1 hr 9 min 57 sec) 
Heartbeat CPU 0 instructions: 420000000 cycles: 507279327 heartbeat IPC: 0.230779 cumulative IPC: 0.232612 (Simulation time: 1 hr 10 min 7 sec) 
Heartbeat CPU 2 instructions: 790000001 cycles: 508783972 heartbeat IPC: 1.12693 cumulative IPC: 1.08677 (Simulation time: 1 hr 10 min 17 sec) 
Heartbeat CPU 2 instructions: 800000000 cycles: 517813000 heartbeat IPC: 1.10754 cumulative IPC: 1.0873 (Simulation time: 1 hr 11 min 10 sec) 
Heartbeat CPU 2 instructions: 810000000 cycles: 527075338 heartbeat IPC: 1.07964 cumulative IPC: 1.08711 (Simulation time: 1 hr 12 min 2 sec) 
Heartbeat CPU 1 instructions: 330000002 cycles: 529530745 heartbeat IPC: 0.416625 cumulative IPC: 0.359423 (Simulation time: 1 hr 12 min 16 sec) 
Heartbeat CPU 2 instructions: 820000000 cycles: 536394842 heartbeat IPC: 1.07302 cumulative IPC: 1.08675 (Simulation time: 1 hr 12 min 55 sec) 
Heartbeat CPU 3 instructions: 370000001 cycles: 536957207 heartbeat IPC: 0.296979 cumulative IPC: 0.292917 (Simulation time: 1 hr 12 min 58 sec) 
Heartbeat CPU 2 instructions: 830000003 cycles: 545430128 heartbeat IPC: 1.10677 cumulative IPC: 1.08723 (Simulation time: 1 hr 13 min 48 sec) 
Heartbeat CPU 0 instructions: 430000002 cycles: 551264700 heartbeat IPC: 0.227348 cumulative IPC: 0.232009 (Simulation time: 1 hr 14 min 20 sec) 
Heartbeat CPU 1 instructions: 340000000 cycles: 553606296 heartbeat IPC: 0.415359 cumulative IPC: 0.362914 (Simulation time: 1 hr 14 min 34 sec) 
Heartbeat CPU 2 instructions: 840000000 cycles: 554482669 heartbeat IPC: 1.10466 cumulative IPC: 1.08764 (Simulation time: 1 hr 14 min 39 sec) 
Heartbeat CPU 2 instructions: 850000000 cycles: 563517484 heartbeat IPC: 1.10683 cumulative IPC: 1.08808 (Simulation time: 1 hr 15 min 29 sec) 
Heartbeat CPU 3 instructions: 380000000 cycles: 570992071 heartbeat IPC: 0.293816 cumulative IPC: 0.292993 (Simulation time: 1 hr 16 min 12 sec) 
Heartbeat CPU 2 instructions: 860000000 cycles: 572554187 heartbeat IPC: 1.1066 cumulative IPC: 1.08849 (Simulation time: 1 hr 16 min 22 sec) 
Heartbeat CPU 1 instructions: 350000003 cycles: 577804543 heartbeat IPC: 0.413253 cumulative IPC: 0.365886 (Simulation time: 1 hr 16 min 51 sec) 
Heartbeat CPU 2 instructions: 870000002 cycles: 581590004 heartbeat IPC: 1.10671 cumulative IPC: 1.08889 (Simulation time: 1 hr 17 min 13 sec) 
Heartbeat CPU 2 instructions: 880000000 cycles: 590621363 heartbeat IPC: 1.10725 cumulative IPC: 1.08928 (Simulation time: 1 hr 18 min 4 sec) 
Heartbeat CPU 0 instructions: 440000000 cycles: 590974341 heartbeat IPC: 0.251828 cumulative IPC: 0.233869 (Simulation time: 1 hr 18 min 6 sec) 
Heartbeat CPU 2 instructions: 890000000 cycles: 599671790 heartbeat IPC: 1.10492 cumulative IPC: 1.08961 (Simulation time: 1 hr 18 min 56 sec) 
Heartbeat CPU 1 instructions: 360000000 cycles: 601883180 heartbeat IPC: 0.415306 cumulative IPC: 0.368627 (Simulation time: 1 hr 19 min 8 sec) 
Heartbeat CPU 3 instructions: 390000001 cycles: 605163475 heartbeat IPC: 0.292642 cumulative IPC: 0.292966 (Simulation time: 1 hr 19 min 26 sec) 
Heartbeat CPU 2 instructions: 900000000 cycles: 608709601 heartbeat IPC: 1.10646 cumulative IPC: 1.08995 (Simulation time: 1 hr 19 min 47 sec) 
Heartbeat CPU 2 instructions: 910000001 cycles: 617749002 heartbeat IPC: 1.10627 cumulative IPC: 1.09028 (Simulation time: 1 hr 20 min 38 sec) 
Heartbeat CPU 1 instructions: 370000003 cycles: 626018185 heartbeat IPC: 0.414336 cumulative IPC: 0.371035 (Simulation time: 1 hr 21 min 25 sec) 
Heartbeat CPU 2 instructions: 920000000 cycles: 626783802 heartbeat IPC: 1.10683 cumulative IPC: 1.09061 (Simulation time: 1 hr 21 min 29 sec) 
Heartbeat CPU 2 instructions: 930000003 cycles: 636256272 heartbeat IPC: 1.05569 cumulative IPC: 1.0899 (Simulation time: 1 hr 22 min 24 sec) 
Heartbeat CPU 0 instructions: 450000002 cycles: 637973042 heartbeat IPC: 0.212772 cumulative IPC: 0.23176 (Simulation time: 1 hr 22 min 33 sec) 
Heartbeat CPU 3 instructions: 400000000 cycles: 640122903 heartbeat IPC: 0.286046 cumulative IPC: 0.292453 (Simulation time: 1 hr 22 min 45 sec) 
Heartbeat CPU 2 instructions: 940000000 cycles: 645283145 heartbeat IPC: 1.1078 cumulative IPC: 1.09024 (Simulation time: 1 hr 23 min 14 sec) 
Heartbeat CPU 1 instructions: 380000000 cycles: 650334031 heartbeat IPC: 0.411254 cumulative IPC: 0.373062 (Simulation time: 1 hr 23 min 42 sec) 
Heartbeat CPU 2 instructions: 950000002 cycles: 654384675 heartbeat IPC: 1.09872 cumulative IPC: 1.0904 (Simulation time: 1 hr 24 min 5 sec) 
Heartbeat CPU 2 instructions: 960000000 cycles: 663437586 heartbeat IPC: 1.10462 cumulative IPC: 1.09066 (Simulation time: 1 hr 24 min 52 sec) 
Heartbeat CPU 2 instructions: 970000001 cycles: 672236196 heartbeat IPC: 1.13654 cumulative IPC: 1.09146 (Simulation time: 1 hr 25 min 42 sec) 
Heartbeat CPU 1 instructions: 390000001 cycles: 674669331 heartbeat IPC: 0.410926 cumulative IPC: 0.37488 (Simulation time: 1 hr 25 min 55 sec) 
Heartbeat CPU 3 instructions: 410000003 cycles: 679749538 heartbeat IPC: 0.252356 cumulative IPC: 0.28935 (Simulation time: 1 hr 26 min 24 sec) 
Heartbeat CPU 2 instructions: 980000000 cycles: 681009703 heartbeat IPC: 1.13979 cumulative IPC: 1.09228 (Simulation time: 1 hr 26 min 31 sec) 
Heartbeat CPU 0 instructions: 460000000 cycles: 681310350 heartbeat IPC: 0.230748 cumulative IPC: 0.231674 (Simulation time: 1 hr 26 min 32 sec) 
Heartbeat CPU 2 instructions: 990000003 cycles: 689773128 heartbeat IPC: 1.14111 cumulative IPC: 1.0931 (Simulation time: 1 hr 27 min 21 sec) 
Heartbeat CPU 2 instructions: 1000000000 cycles: 698535988 heartbeat IPC: 1.14118 cumulative IPC: 1.0939 (Simulation time: 1 hr 28 min 11 sec) 
Heartbeat CPU 1 instructions: 400000000 cycles: 698771465 heartbeat IPC: 0.414901 cumulative IPC: 0.376697 (Simulation time: 1 hr 28 min 12 sec) 
Heartbeat CPU 2 instructions: 1010000001 cycles: 707923242 heartbeat IPC: 1.06527 cumulative IPC: 1.0934 (Simulation time: 1 hr 29 min 5 sec) 
Heartbeat CPU 3 instructions: 420000000 cycles: 714055228 heartbeat IPC: 0.291497 cumulative IPC: 0.289484 (Simulation time: 1 hr 29 min 41 sec) 
Heartbeat CPU 2 instructions: 1020000000 cycles: 718231410 heartbeat IPC: 0.970104 cumulative IPC: 1.09109 (Simulation time: 1 hr 30 min 4 sec) 
Heartbeat CPU 1 instructions: 410000000 cycles: 724050431 heartbeat IPC: 0.395586 cumulative IPC: 0.377555 (Simulation time: 1 hr 30 min 37 sec) 
Heartbeat CPU 0 instructions: 470000000 cycles: 725667484 heartbeat IPC: 0.225443 cumulative IPC: 0.231179 (Simulation time: 1 hr 30 min 47 sec) 
Heartbeat CPU 2 instructions: 1030000001 cycles: 726777594 heartbeat IPC: 1.17011 cumulative IPC: 1.0923 (Simulation time: 1 hr 30 min 53 sec) 
Heartbeat CPU 2 instructions: 1040000000 cycles: 735305439 heartbeat IPC: 1.17263 cumulative IPC: 1.09351 (Simulation time: 1 hr 31 min 42 sec) 
Heartbeat CPU 2 instructions: 1050000000 cycles: 743845146 heartbeat IPC: 1.171 cumulative IPC: 1.09466 (Simulation time: 1 hr 32 min 32 sec) 
Heartbeat CPU 1 instructions: 420000000 cycles: 748188201 heartbeat IPC: 0.414288 cumulative IPC: 0.379083 (Simulation time: 1 hr 32 min 58 sec) 
Heartbeat CPU 3 instructions: 430000001 cycles: 748633963 heartbeat IPC: 0.289195 cumulative IPC: 0.289467 (Simulation time: 1 hr 33 min 0 sec) 
Heartbeat CPU 2 instructions: 1060000000 cycles: 752672506 heartbeat IPC: 1.13284 cumulative IPC: 1.09523 (Simulation time: 1 hr 33 min 22 sec) 
Heartbeat CPU 2 instructions: 1070000002 cycles: 761717604 heartbeat IPC: 1.10557 cumulative IPC: 1.09539 (Simulation time: 1 hr 34 min 17 sec) 
Heartbeat CPU 0 instructions: 480000000 cycles: 765606028 heartbeat IPC: 0.250385 cumulative IPC: 0.232462 (Simulation time: 1 hr 34 min 39 sec) 
Heartbeat CPU 2 instructions: 1080000000 cycles: 771028708 heartbeat IPC: 1.07399 cumulative IPC: 1.09506 (Simulation time: 1 hr 35 min 9 sec) 
Heartbeat CPU 1 instructions: 430000003 cycles: 772367211 heartbeat IPC: 0.413582 cumulative IPC: 0.380463 (Simulation time: 1 hr 35 min 16 sec) 
Heartbeat CPU 2 instructions: 1090000001 cycles: 780496286 heartbeat IPC: 1.05624 cumulative IPC: 1.09446 (Simulation time: 1 hr 36 min 2 sec) 
Heartbeat CPU 3 instructions: 440000000 cycles: 782833918 heartbeat IPC: 0.292398 cumulative IPC: 0.28963 (Simulation time: 1 hr 36 min 16 sec) 
Heartbeat CPU 2 instructions: 1100000000 cycles: 789701909 heartbeat IPC: 1.08629 cumulative IPC: 1.09434 (Simulation time: 1 hr 36 min 53 sec) 
Heartbeat CPU 1 instructions: 440000000 cycles: 796579063 heartbeat IPC: 0.413021 cumulative IPC: 0.381717 (Simulation time: 1 hr 37 min 32 sec) 
Heartbeat CPU 2 instructions: 1110000000 cycles: 798735628 heartbeat IPC: 1.10696 cumulative IPC: 1.09452 (Simulation time: 1 hr 37 min 44 sec) 
Heartbeat CPU 2 instructions: 1120000000 cycles: 807678992 heartbeat IPC: 1.11815 cumulative IPC: 1.09485 (Simulation time: 1 hr 38 min 35 sec) 
Heartbeat CPU 0 instructions: 490000000 cycles: 812499324 heartbeat IPC: 0.21325 cumulative IPC: 0.231064 (Simulation time: 1 hr 39 min 2 sec) 
Heartbeat CPU 3 instructions: 450000001 cycles: 816841018 heartbeat IPC: 0.294056 cumulative IPC: 0.289862 (Simulation time: 1 hr 39 min 27 sec) 
Heartbeat CPU 2 instructions: 1130000002 cycles: 817018247 heartbeat IPC: 1.07075 cumulative IPC: 1.0945 (Simulation time: 1 hr 39 min 28 sec) 
Heartbeat CPU 1 instructions: 450000002 cycles: 820778972 heartbeat IPC: 0.413225 cumulative IPC: 0.382884 (Simulation time: 1 hr 39 min 49 sec) 
Heartbeat CPU 2 instructions: 1140000000 cycles: 826015628 heartbeat IPC: 1.11143 cumulative IPC: 1.09473 (Simulation time: 1 hr 40 min 20 sec) 
Heartbeat CPU 2 instructions: 1150000000 cycles: 834998445 heartbeat IPC: 1.11324 cumulative IPC: 1.09498 (Simulation time: 1 hr 41 min 11 sec) 
Heartbeat CPU 2 instructions: 1160000000 cycles: 844128036 heartbeat IPC: 1.09534 cumulative IPC: 1.09499 (Simulation time: 1 hr 42 min 4 sec) 
Heartbeat CPU 1 instructions: 460000000 cycles: 844954333 heartbeat IPC: 0.413644 cumulative IPC: 0.383983 (Simulation time: 1 hr 42 min 8 sec) 
Heartbeat CPU 3 instructions: 460000000 cycles: 850762708 heartbeat IPC: 0.294797 cumulative IPC: 0.290107 (Simulation time: 1 hr 42 min 41 sec) 
Heartbeat CPU 2 instructions: 1170000001 cycles: 853120302 heartbeat IPC: 1.11207 cumulative IPC: 1.09521 (Simulation time: 1 hr 42 min 54 sec) 
Heartbeat CPU 0 instructions: 500000000 cycles: 857651038 heartbeat IPC: 0.221476 cumulative IPC: 0.230437 (Simulation time: 1 hr 43 min 20 sec) 
Heartbeat CPU 2 instructions: 1180000000 cycles: 862246676 heartbeat IPC: 1.09573 cumulative IPC: 1.09522 (Simulation time: 1 hr 43 min 47 sec) 
Heartbeat CPU 1 instructions: 470000003 cycles: 869247018 heartbeat IPC: 0.411647 cumulative IPC: 0.384941 (Simulation time: 1 hr 44 min 26 sec) 
Heartbeat CPU 2 instructions: 1190000002 cycles: 871245380 heartbeat IPC: 1.11127 cumulative IPC: 1.09542 (Simulation time: 1 hr 44 min 37 sec) 
Heartbeat CPU 2 instructions: 1200000000 cycles: 880366242 heartbeat IPC: 1.09639 cumulative IPC: 1.09544 (Simulation time: 1 hr 45 min 30 sec) 
Heartbeat CPU 3 instructions: 470000000 cycles: 884730826 heartbeat IPC: 0.294394 cumulative IPC: 0.29031 (Simulation time: 1 hr 45 min 54 sec) 
Heartbeat CPU 2 instructions: 1210000000 cycles: 889323131 heartbeat IPC: 1.11646 cumulative IPC: 1.0957 (Simulation time: 1 hr 46 min 21 sec) 
Heartbeat CPU 1 instructions: 480000000 cycles: 893417481 heartbeat IPC: 0.413728 cumulative IPC: 0.3859 (Simulation time: 1 hr 46 min 43 sec) 
Heartbeat CPU 2 instructions: 1220000000 cycles: 898310478 heartbeat IPC: 1.11268 cumulative IPC: 1.09591 (Simulation time: 1 hr 47 min 11 sec) 
Heartbeat CPU 0 instructions: 510000000 cycles: 900121972 heartbeat IPC: 0.235455 cumulative IPC: 0.230728 (Simulation time: 1 hr 47 min 21 sec) 
Heartbeat CPU 2 instructions: 1230000001 cycles: 907444769 heartbeat IPC: 1.09478 cumulative IPC: 1.09589 (Simulation time: 1 hr 48 min 3 sec) 
Heartbeat CPU 2 instructions: 1240000000 cycles: 916435609 heartbeat IPC: 1.11224 cumulative IPC: 1.09609 (Simulation time: 1 hr 48 min 54 sec) 
Heartbeat CPU 1 instructions: 490000003 cycles: 917728807 heartbeat IPC: 0.411331 cumulative IPC: 0.386724 (Simulation time: 1 hr 49 min 1 sec) 
Heartbeat CPU 3 instructions: 480000000 cycles: 918705667 heartbeat IPC: 0.294335 cumulative IPC: 0.290492 (Simulation time: 1 hr 49 min 7 sec) 
Heartbeat CPU 2 instructions: 1250000000 cycles: 925763373 heartbeat IPC: 1.07207 cumulative IPC: 1.09579 (Simulation time: 1 hr 49 min 48 sec) 
Heartbeat CPU 2 instructions: 1260000000 cycles: 934720193 heartbeat IPC: 1.11647 cumulative IPC: 1.09603 (Simulation time: 1 hr 50 min 39 sec) 
Heartbeat CPU 1 instructions: 500000000 cycles: 941850045 heartbeat IPC: 0.414572 cumulative IPC: 0.387592 (Simulation time: 1 hr 51 min 19 sec) 
Heartbeat CPU 2 instructions: 1270000002 cycles: 943682105 heartbeat IPC: 1.11583 cumulative IPC: 1.09626 (Simulation time: 1 hr 51 min 29 sec) 
Heartbeat CPU 0 instructions: 520000000 cycles: 947808259 heartbeat IPC: 0.209704 cumulative IPC: 0.229442 (Simulation time: 1 hr 51 min 53 sec) 
Heartbeat CPU 2 instructions: 1280000000 cycles: 952989443 heartbeat IPC: 1.07442 cumulative IPC: 1.096 (Simulation time: 1 hr 52 min 23 sec) 
Heartbeat CPU 3 instructions: 490000001 cycles: 953374013 heartbeat IPC: 0.288448 cumulative IPC: 0.290402 (Simulation time: 1 hr 52 min 25 sec) 
Heartbeat CPU 2 instructions: 1290000002 cycles: 962142582 heartbeat IPC: 1.09252 cumulative IPC: 1.09596 (Simulation time: 1 hr 53 min 14 sec) 
Heartbeat CPU 1 instructions: 510000000 cycles: 966060636 heartbeat IPC: 0.413042 cumulative IPC: 0.388364 (Simulation time: 1 hr 53 min 37 sec) 
Heartbeat CPU 2 instructions: 1300000000 cycles: 971421630 heartbeat IPC: 1.0777 cumulative IPC: 1.09575 (Simulation time: 1 hr 54 min 7 sec) 
Heartbeat CPU 2 instructions: 1310000002 cycles: 980295980 heartbeat IPC: 1.12684 cumulative IPC: 1.09609 (Simulation time: 1 hr 54 min 59 sec) 
Heartbeat CPU 3 instructions: 500000000 cycles: 987384611 heartbeat IPC: 0.294026 cumulative IPC: 0.290553 (Simulation time: 1 hr 55 min 39 sec) 
Heartbeat CPU 2 instructions: 1320000000 cycles: 989163715 heartbeat IPC: 1.12768 cumulative IPC: 1.09643 (Simulation time: 1 hr 55 min 49 sec) 
Heartbeat CPU 1 instructions: 520000000 cycles: 990317263 heartbeat IPC: 0.412258 cumulative IPC: 0.389069 (Simulation time: 1 hr 55 min 56 sec) 
Heartbeat CPU 0 instructions: 530000003 cycles: 992549545 heartbeat IPC: 0.223507 cumulative IPC: 0.22912 (Simulation time: 1 hr 56 min 9 sec) 
Heartbeat CPU 2 instructions: 1330000000 cycles: 997714274 heartbeat IPC: 1.16951 cumulative IPC: 1.09719 (Simulation time: 1 hr 56 min 39 sec) 
Heartbeat CPU 2 instructions: 1340000000 cycles: 1006237344 heartbeat IPC: 1.17329 cumulative IPC: 1.09796 (Simulation time: 1 hr 57 min 28 sec) 
Heartbeat CPU 1 instructions: 530000001 cycles: 1014340728 heartbeat IPC: 0.41626 cumulative IPC: 0.38984 (Simulation time: 1 hr 58 min 14 sec) 
Heartbeat CPU 2 instructions: 1350000000 cycles: 1014779088 heartbeat IPC: 1.17072 cumulative IPC: 1.09869 (Simulation time: 1 hr 58 min 16 sec) 
Heartbeat CPU 3 instructions: 510000000 cycles: 1022063079 heartbeat IPC: 0.288363 cumulative IPC: 0.290464 (Simulation time: 1 hr 58 min 58 sec) 
Heartbeat CPU 2 instructions: 1360000000 cycles: 1024354410 heartbeat IPC: 1.04435 cumulative IPC: 1.09809 (Simulation time: 1 hr 59 min 13 sec) 
Heartbeat CPU 0 instructions: 540000000 cycles: 1033559713 heartbeat IPC: 0.243842 cumulative IPC: 0.229818 (Simulation time: 2 hr 0 min 6 sec) 
Heartbeat CPU 2 instructions: 1370000003 cycles: 1034432410 heartbeat IPC: 0.992261 cumulative IPC: 1.09686 (Simulation time: 2 hr 0 min 12 sec) 
Heartbeat CPU 1 instructions: 540000000 cycles: 1039551035 heartbeat IPC: 0.396663 cumulative IPC: 0.390038 (Simulation time: 2 hr 0 min 42 sec) 
Heartbeat CPU 2 instructions: 1380000000 cycles: 1043240717 heartbeat IPC: 1.13529 cumulative IPC: 1.09724 (Simulation time: 2 hr 1 min 4 sec) 
Heartbeat CPU 2 instructions: 1390000003 cycles: 1052044341 heartbeat IPC: 1.1359 cumulative IPC: 1.09763 (Simulation time: 2 hr 1 min 54 sec) 
Heartbeat CPU 3 instructions: 520000000 cycles: 1056534567 heartbeat IPC: 0.290095 cumulative IPC: 0.290449 (Simulation time: 2 hr 2 min 20 sec) 
Heartbeat CPU 2 instructions: 1400000000 cycles: 1060854219 heartbeat IPC: 1.13509 cumulative IPC: 1.098 (Simulation time: 2 hr 2 min 44 sec) 
Heartbeat CPU 1 instructions: 550000000 cycles: 1063563892 heartbeat IPC: 0.416444 cumulative IPC: 0.390746 (Simulation time: 2 hr 2 min 59 sec) 
Heartbeat CPU 2 instructions: 1410000001 cycles: 1069664876 heartbeat IPC: 1.13499 cumulative IPC: 1.09836 (Simulation time: 2 hr 3 min 35 sec) 
Heartbeat CPU 0 instructions: 550000002 cycles: 1073816670 heartbeat IPC: 0.248404 cumulative IPC: 0.230644 (Simulation time: 2 hr 3 min 58 sec) 
Finished CPU 2 instructions: 1000000002 cycles: 910127186 cumulative IPC: 1.09875 (Simulation time: 2 hr 4 min 21 sec) 
Heartbeat CPU 2 instructions: 1420000000 cycles: 1078440029 heartbeat IPC: 1.13958 cumulative IPC: 1.09876 (Simulation time: 2 hr 4 min 24 sec) 
Heartbeat CPU 2 instructions: 1430000001 cycles: 1087210891 heartbeat IPC: 1.14014 cumulative IPC: 1.09915 (Simulation time: 2 hr 5 min 17 sec) 
Heartbeat CPU 1 instructions: 560000000 cycles: 1087513881 heartbeat IPC: 0.417537 cumulative IPC: 0.391443 (Simulation time: 2 hr 5 min 19 sec) 
Heartbeat CPU 3 instructions: 530000000 cycles: 1090230542 heartbeat IPC: 0.296771 cumulative IPC: 0.29068 (Simulation time: 2 hr 5 min 34 sec) 
Heartbeat CPU 2 instructions: 1440000000 cycles: 1095957558 heartbeat IPC: 1.14329 cumulative IPC: 1.09957 (Simulation time: 2 hr 6 min 7 sec) 
Heartbeat CPU 2 instructions: 1450000002 cycles: 1105166027 heartbeat IPC: 1.08596 cumulative IPC: 1.09943 (Simulation time: 2 hr 6 min 58 sec) 
Heartbeat CPU 1 instructions: 570000000 cycles: 1111546023 heartbeat IPC: 0.416109 cumulative IPC: 0.392071 (Simulation time: 2 hr 7 min 35 sec) 
Heartbeat CPU 0 instructions: 560000000 cycles: 1113106892 heartbeat IPC: 0.254516 cumulative IPC: 0.231636 (Simulation time: 2 hr 7 min 44 sec) 
Heartbeat CPU 2 instructions: 1460000000 cycles: 1114340970 heartbeat IPC: 1.08992 cumulative IPC: 1.09934 (Simulation time: 2 hr 7 min 51 sec) 
Heartbeat CPU 2 instructions: 1470000000 cycles: 1123509960 heartbeat IPC: 1.09063 cumulative IPC: 1.09926 (Simulation time: 2 hr 8 min 44 sec) 
Heartbeat CPU 3 instructions: 540000000 cycles: 1123912932 heartbeat IPC: 0.296891 cumulative IPC: 0.290899 (Simulation time: 2 hr 8 min 46 sec) 
Heartbeat CPU 2 instructions: 1480000000 cycles: 1133093741 heartbeat IPC: 1.04343 cumulative IPC: 1.0987 (Simulation time: 2 hr 9 min 39 sec) 
Heartbeat CPU 1 instructions: 580000000 cycles: 1135517998 heartbeat IPC: 0.417154 cumulative IPC: 0.392693 (Simulation time: 2 hr 9 min 54 sec) 
Heartbeat CPU 2 instructions: 1490000000 cycles: 1142047305 heartbeat IPC: 1.11687 cumulative IPC: 1.09887 (Simulation time: 2 hr 10 min 32 sec) 
Heartbeat CPU 2 instructions: 1500000000 cycles: 1151213661 heartbeat IPC: 1.09095 cumulative IPC: 1.0988 (Simulation time: 2 hr 11 min 24 sec) 
Heartbeat CPU 0 instructions: 570000002 cycles: 1155387306 heartbeat IPC: 0.236516 cumulative IPC: 0.231845 (Simulation time: 2 hr 11 min 48 sec) 
Heartbeat CPU 3 instructions: 550000000 cycles: 1157376226 heartbeat IPC: 0.298835 cumulative IPC: 0.291167 (Simulation time: 2 hr 11 min 59 sec) 
Heartbeat CPU 1 instructions: 590000003 cycles: 1159518903 heartbeat IPC: 0.416651 cumulative IPC: 0.393273 (Simulation time: 2 hr 12 min 11 sec) 
Heartbeat CPU 2 instructions: 1510000000 cycles: 1160244312 heartbeat IPC: 1.10734 cumulative IPC: 1.09887 (Simulation time: 2 hr 12 min 16 sec) 
Heartbeat CPU 2 instructions: 1520000000 cycles: 1169310639 heartbeat IPC: 1.10298 cumulative IPC: 1.09891 (Simulation time: 2 hr 13 min 7 sec) 
Heartbeat CPU 2 instructions: 1530000000 cycles: 1178281552 heartbeat IPC: 1.11471 cumulative IPC: 1.09905 (Simulation time: 2 hr 13 min 58 sec) 
Heartbeat CPU 1 instructions: 600000000 cycles: 1183566846 heartbeat IPC: 0.415836 cumulative IPC: 0.393807 (Simulation time: 2 hr 14 min 28 sec) 
Heartbeat CPU 2 instructions: 1540000000 cycles: 1187310668 heartbeat IPC: 1.10753 cumulative IPC: 1.09913 (Simulation time: 2 hr 14 min 49 sec) 
Heartbeat CPU 3 instructions: 560000000 cycles: 1190594785 heartbeat IPC: 0.301037 cumulative IPC: 0.291488 (Simulation time: 2 hr 15 min 8 sec) 
Heartbeat CPU 2 instructions: 1550000000 cycles: 1196303735 heartbeat IPC: 1.11197 cumulative IPC: 1.09924 (Simulation time: 2 hr 15 min 39 sec) 
Heartbeat CPU 0 instructions: 580000000 cycles: 1197041255 heartbeat IPC: 0.240073 cumulative IPC: 0.232178 (Simulation time: 2 hr 15 min 44 sec) 
Heartbeat CPU 1 instructions: 610000001 cycles: 1204142333 heartbeat IPC: 0.486015 cumulative IPC: 0.395638 (Simulation time: 2 hr 16 min 29 sec) 
Heartbeat CPU 2 instructions: 1560000000 cycles: 1205308823 heartbeat IPC: 1.11048 cumulative IPC: 1.09934 (Simulation time: 2 hr 16 min 38 sec) 
Heartbeat CPU 2 instructions: 1570000002 cycles: 1214322698 heartbeat IPC: 1.1094 cumulative IPC: 1.09942 (Simulation time: 2 hr 17 min 39 sec) 
Heartbeat CPU 1 instructions: 620000000 cycles: 1216776172 heartbeat IPC: 0.791525 cumulative IPC: 0.400406 (Simulation time: 2 hr 17 min 56 sec) 
Heartbeat CPU 2 instructions: 1580000000 cycles: 1223315007 heartbeat IPC: 1.11206 cumulative IPC: 1.09953 (Simulation time: 2 hr 18 min 41 sec) 
Heartbeat CPU 3 instructions: 570000001 cycles: 1224390361 heartbeat IPC: 0.295897 cumulative IPC: 0.291629 (Simulation time: 2 hr 18 min 49 sec) 
Heartbeat CPU 1 instructions: 630000002 cycles: 1229404352 heartbeat IPC: 0.79188 cumulative IPC: 0.405063 (Simulation time: 2 hr 19 min 23 sec) 
Heartbeat CPU 2 instructions: 1590000001 cycles: 1232351955 heartbeat IPC: 1.10657 cumulative IPC: 1.09959 (Simulation time: 2 hr 19 min 43 sec) 
Heartbeat CPU 0 instructions: 590000002 cycles: 1240184708 heartbeat IPC: 0.231785 cumulative IPC: 0.232162 (Simulation time: 2 hr 20 min 37 sec) 
Heartbeat CPU 2 instructions: 1600000000 cycles: 1241319680 heartbeat IPC: 1.11511 cumulative IPC: 1.09972 (Simulation time: 2 hr 20 min 44 sec) 
Heartbeat CPU 1 instructions: 640000000 cycles: 1242029302 heartbeat IPC: 0.792082 cumulative IPC: 0.409611 (Simulation time: 2 hr 20 min 49 sec) 
Heartbeat CPU 2 instructions: 1610000000 cycles: 1250357494 heartbeat IPC: 1.10646 cumulative IPC: 1.09978 (Simulation time: 2 hr 21 min 47 sec) 
Heartbeat CPU 1 instructions: 650000002 cycles: 1254677422 heartbeat IPC: 0.790631 cumulative IPC: 0.414045 (Simulation time: 2 hr 22 min 13 sec) 
Heartbeat CPU 2 instructions: 1620000000 cycles: 1259322945 heartbeat IPC: 1.11539 cumulative IPC: 1.0999 (Simulation time: 2 hr 22 min 43 sec) 
Heartbeat CPU 3 instructions: 580000000 cycles: 1265255472 heartbeat IPC: 0.244707 cumulative IPC: 0.289882 (Simulation time: 2 hr 23 min 22 sec) 
Heartbeat CPU 1 instructions: 660000000 cycles: 1267424012 heartbeat IPC: 0.784523 cumulative IPC: 0.41834 (Simulation time: 2 hr 23 min 38 sec) 
Heartbeat CPU 2 instructions: 1630000002 cycles: 1268386039 heartbeat IPC: 1.10338 cumulative IPC: 1.09993 (Simulation time: 2 hr 23 min 45 sec) 
Heartbeat CPU 2 instructions: 1640000000 cycles: 1277323473 heartbeat IPC: 1.11889 cumulative IPC: 1.10009 (Simulation time: 2 hr 24 min 45 sec) 
Heartbeat CPU 1 instructions: 670000000 cycles: 1280217003 heartbeat IPC: 0.781678 cumulative IPC: 0.422519 (Simulation time: 2 hr 25 min 6 sec) 
Heartbeat CPU 0 instructions: 600000000 cycles: 1283746982 heartbeat IPC: 0.229556 cumulative IPC: 0.23206 (Simulation time: 2 hr 25 min 29 sec) 
Heartbeat CPU 2 instructions: 1650000000 cycles: 1286394833 heartbeat IPC: 1.10237 cumulative IPC: 1.1001 (Simulation time: 2 hr 25 min 47 sec) 
Heartbeat CPU 1 instructions: 680000000 cycles: 1293023709 heartbeat IPC: 0.780841 cumulative IPC: 0.426597 (Simulation time: 2 hr 26 min 31 sec) 
Heartbeat CPU 2 instructions: 1660000000 cycles: 1295360812 heartbeat IPC: 1.11533 cumulative IPC: 1.10023 (Simulation time: 2 hr 26 min 45 sec) 
Heartbeat CPU 3 instructions: 590000000 cycles: 1299760449 heartbeat IPC: 0.289813 cumulative IPC: 0.28988 (Simulation time: 2 hr 27 min 15 sec) 
Heartbeat CPU 2 instructions: 1670000002 cycles: 1304373065 heartbeat IPC: 1.1096 cumulative IPC: 1.1003 (Simulation time: 2 hr 27 min 46 sec) 
Heartbeat CPU 1 instructions: 690000003 cycles: 1305783859 heartbeat IPC: 0.78369 cumulative IPC: 0.430601 (Simulation time: 2 hr 27 min 56 sec) 
Heartbeat CPU 2 instructions: 1680000000 cycles: 1313344676 heartbeat IPC: 1.11463 cumulative IPC: 1.10041 (Simulation time: 2 hr 28 min 46 sec) 
Heartbeat CPU 1 instructions: 700000000 cycles: 1317803949 heartbeat IPC: 0.83194 cumulative IPC: 0.434796 (Simulation time: 2 hr 29 min 17 sec) 
Heartbeat CPU 2 instructions: 1690000003 cycles: 1323199927 heartbeat IPC: 1.01469 cumulative IPC: 1.09968 (Simulation time: 2 hr 29 min 53 sec) 
Heartbeat CPU 0 instructions: 610000002 cycles: 1327764830 heartbeat IPC: 0.227181 cumulative IPC: 0.231875 (Simulation time: 2 hr 30 min 25 sec) 
Heartbeat CPU 1 instructions: 710000000 cycles: 1329806039 heartbeat IPC: 0.833188 cumulative IPC: 0.438911 (Simulation time: 2 hr 30 min 39 sec) 
Heartbeat CPU 2 instructions: 1700000000 cycles: 1332473610 heartbeat IPC: 1.07832 cumulative IPC: 1.09951 (Simulation time: 2 hr 30 min 57 sec) 
Heartbeat CPU 3 instructions: 600000000 cycles: 1333484321 heartbeat IPC: 0.296526 cumulative IPC: 0.290072 (Simulation time: 2 hr 31 min 3 sec) 
Heartbeat CPU 2 instructions: 1710000003 cycles: 1341412398 heartbeat IPC: 1.11872 cumulative IPC: 1.09966 (Simulation time: 2 hr 31 min 57 sec) 
Heartbeat CPU 1 instructions: 720000000 cycles: 1341845633 heartbeat IPC: 0.830593 cumulative IPC: 0.442928 (Simulation time: 2 hr 32 min 0 sec) 
Heartbeat CPU 2 instructions: 1720000000 cycles: 1350217760 heartbeat IPC: 1.13567 cumulative IPC: 1.09993 (Simulation time: 2 hr 32 min 56 sec) 
Heartbeat CPU 1 instructions: 730000001 cycles: 1353836350 heartbeat IPC: 0.833979 cumulative IPC: 0.446882 (Simulation time: 2 hr 33 min 21 sec) 
Heartbeat CPU 2 instructions: 1730000000 cycles: 1358983304 heartbeat IPC: 1.14083 cumulative IPC: 1.10023 (Simulation time: 2 hr 33 min 55 sec) 
Heartbeat CPU 1 instructions: 740000000 cycles: 1365857539 heartbeat IPC: 0.831864 cumulative IPC: 0.450745 (Simulation time: 2 hr 34 min 43 sec) 
Heartbeat CPU 3 instructions: 610000000 cycles: 1366833622 heartbeat IPC: 0.299856 cumulative IPC: 0.290344 (Simulation time: 2 hr 34 min 49 sec) 
Heartbeat CPU 2 instructions: 1740000000 cycles: 1367739234 heartbeat IPC: 1.14208 cumulative IPC: 1.10053 (Simulation time: 2 hr 34 min 55 sec) 
Heartbeat CPU 0 instructions: 620000000 cycles: 1372244527 heartbeat IPC: 0.224822 cumulative IPC: 0.231615 (Simulation time: 2 hr 35 min 27 sec) 
Heartbeat CPU 2 instructions: 1750000001 cycles: 1376556842 heartbeat IPC: 1.13409 cumulative IPC: 1.10078 (Simulation time: 2 hr 35 min 57 sec) 
Heartbeat CPU 1 instructions: 750000003 cycles: 1377880391 heartbeat IPC: 0.83175 cumulative IPC: 0.45453 (Simulation time: 2 hr 36 min 5 sec) 
Heartbeat CPU 2 instructions: 1760000000 cycles: 1385357740 heartbeat IPC: 1.13625 cumulative IPC: 1.10103 (Simulation time: 2 hr 36 min 56 sec) 
Heartbeat CPU 1 instructions: 760000000 cycles: 1390103667 heartbeat IPC: 0.818111 cumulative IPC: 0.458166 (Simulation time: 2 hr 37 min 29 sec) 
Heartbeat CPU 2 instructions: 1770000001 cycles: 1394178560 heartbeat IPC: 1.13368 cumulative IPC: 1.10127 (Simulation time: 2 hr 37 min 59 sec) 
Heartbeat CPU 3 instructions: 620000000 cycles: 1400183837 heartbeat IPC: 0.299848 cumulative IPC: 0.290601 (Simulation time: 2 hr 38 min 38 sec) 
Heartbeat CPU 1 instructions: 770000000 cycles: 1402153146 heartbeat IPC: 0.829911 cumulative IPC: 0.461795 (Simulation time: 2 hr 38 min 52 sec) 
Heartbeat CPU 2 instructions: 1780000000 cycles: 1402986571 heartbeat IPC: 1.13533 cumulative IPC: 1.10151 (Simulation time: 2 hr 38 min 57 sec) 
Heartbeat CPU 0 instructions: 630000000 cycles: 1413648835 heartbeat IPC: 0.241521 cumulative IPC: 0.231944 (Simulation time: 2 hr 40 min 14 sec) 
Heartbeat CPU 2 instructions: 1790000001 cycles: 1414085795 heartbeat IPC: 0.900964 cumulative IPC: 1.09972 (Simulation time: 2 hr 40 min 17 sec) 
Heartbeat CPU 1 instructions: 780000000 cycles: 1414828390 heartbeat IPC: 0.788939 cumulative IPC: 0.465121 (Simulation time: 2 hr 40 min 22 sec) 
Heartbeat CPU 2 instructions: 1800000000 cycles: 1422965420 heartbeat IPC: 1.12617 cumulative IPC: 1.09991 (Simulation time: 2 hr 41 min 17 sec) 
Heartbeat CPU 1 instructions: 790000000 cycles: 1427406626 heartbeat IPC: 0.795024 cumulative IPC: 0.468415 (Simulation time: 2 hr 41 min 47 sec) 
Heartbeat CPU 2 instructions: 1810000001 cycles: 1432204899 heartbeat IPC: 1.08231 cumulative IPC: 1.09978 (Simulation time: 2 hr 42 min 19 sec) 
Heartbeat CPU 3 instructions: 630000002 cycles: 1435330161 heartbeat IPC: 0.284525 cumulative IPC: 0.290433 (Simulation time: 2 hr 42 min 41 sec) 
Heartbeat CPU 1 instructions: 800000000 cycles: 1440090084 heartbeat IPC: 0.788429 cumulative IPC: 0.471606 (Simulation time: 2 hr 43 min 12 sec) 
Heartbeat CPU 2 instructions: 1820000000 cycles: 1441698626 heartbeat IPC: 1.05333 cumulative IPC: 1.09944 (Simulation time: 2 hr 43 min 24 sec) 
Heartbeat CPU 2 instructions: 1830000001 cycles: 1450884054 heartbeat IPC: 1.08868 cumulative IPC: 1.09936 (Simulation time: 2 hr 44 min 26 sec) 
Heartbeat CPU 1 instructions: 810000000 cycles: 1452682958 heartbeat IPC: 0.7941 cumulative IPC: 0.474766 (Simulation time: 2 hr 44 min 39 sec) 
Heartbeat CPU 0 instructions: 640000000 cycles: 1458673564 heartbeat IPC: 0.2221 cumulative IPC: 0.231601 (Simulation time: 2 hr 45 min 20 sec) 
Heartbeat CPU 2 instructions: 1840000000 cycles: 1460702457 heartbeat IPC: 1.0185 cumulative IPC: 1.09875 (Simulation time: 2 hr 45 min 34 sec) 
Heartbeat CPU 1 instructions: 820000000 cycles: 1465278725 heartbeat IPC: 0.793918 cumulative IPC: 0.477865 (Simulation time: 2 hr 46 min 6 sec) 
Heartbeat CPU 3 instructions: 640000000 cycles: 1469479256 heartbeat IPC: 0.292833 cumulative IPC: 0.290496 (Simulation time: 2 hr 46 min 34 sec) 
Heartbeat CPU 2 instructions: 1850000000 cycles: 1470316368 heartbeat IPC: 1.04016 cumulative IPC: 1.09831 (Simulation time: 2 hr 46 min 40 sec) 
Heartbeat CPU 1 instructions: 830000003 cycles: 1477880026 heartbeat IPC: 0.793569 cumulative IPC: 0.480901 (Simulation time: 2 hr 47 min 32 sec) 
Heartbeat CPU 2 instructions: 1860000000 cycles: 1479889500 heartbeat IPC: 1.04459 cumulative IPC: 1.09792 (Simulation time: 2 hr 47 min 46 sec) 
Heartbeat CPU 2 instructions: 1870000003 cycles: 1489363182 heartbeat IPC: 1.05556 cumulative IPC: 1.09762 (Simulation time: 2 hr 48 min 51 sec) 
Heartbeat CPU 1 instructions: 840000000 cycles: 1490535515 heartbeat IPC: 0.790171 cumulative IPC: 0.483861 (Simulation time: 2 hr 49 min 0 sec) 
Heartbeat CPU 2 instructions: 1880000000 cycles: 1498947102 heartbeat IPC: 1.04341 cumulative IPC: 1.09723 (Simulation time: 2 hr 49 min 57 sec) 
Heartbeat CPU 1 instructions: 850000003 cycles: 1503145555 heartbeat IPC: 0.793019 cumulative IPC: 0.48678 (Simulation time: 2 hr 50 min 27 sec) 
Heartbeat CPU 3 instructions: 650000000 cycles: 1503420124 heartbeat IPC: 0.29463 cumulative IPC: 0.290601 (Simulation time: 2 hr 50 min 29 sec) 
Heartbeat CPU 0 instructions: 650000001 cycles: 1507399148 heartbeat IPC: 0.205231 cumulative IPC: 0.230641 (Simulation time: 2 hr 50 min 56 sec) 
Heartbeat CPU 2 instructions: 1890000002 cycles: 1508552952 heartbeat IPC: 1.04103 cumulative IPC: 1.09682 (Simulation time: 2 hr 51 min 4 sec) 
Heartbeat CPU 1 instructions: 860000000 cycles: 1515728707 heartbeat IPC: 0.794713 cumulative IPC: 0.489655 (Simulation time: 2 hr 51 min 54 sec) 
Heartbeat CPU 2 instructions: 1900000000 cycles: 1518035877 heartbeat IPC: 1.05453 cumulative IPC: 1.09653 (Simulation time: 2 hr 52 min 10 sec) 
Heartbeat CPU 2 instructions: 1910000000 cycles: 1527433521 heartbeat IPC: 1.0641 cumulative IPC: 1.0963 (Simulation time: 2 hr 53 min 14 sec) 
Heartbeat CPU 1 instructions: 870000000 cycles: 1528346295 heartbeat IPC: 0.792544 cumulative IPC: 0.492464 (Simulation time: 2 hr 53 min 20 sec) 
Heartbeat CPU 2 instructions: 1920000000 cycles: 1537051906 heartbeat IPC: 1.03968 cumulative IPC: 1.09591 (Simulation time: 2 hr 54 min 24 sec) 
Heartbeat CPU 3 instructions: 660000000 cycles: 1537526407 heartbeat IPC: 0.293201 cumulative IPC: 0.290666 (Simulation time: 2 hr 54 min 27 sec) 
Heartbeat CPU 1 instructions: 880000000 cycles: 1540917375 heartbeat IPC: 0.795477 cumulative IPC: 0.495238 (Simulation time: 2 hr 54 min 50 sec) 
Heartbeat CPU 0 instructions: 660000000 cycles: 1544172661 heartbeat IPC: 0.271935 cumulative IPC: 0.231745 (Simulation time: 2 hr 55 min 14 sec) 
Heartbeat CPU 2 instructions: 1930000003 cycles: 1546364459 heartbeat IPC: 1.07382 cumulative IPC: 1.09576 (Simulation time: 2 hr 55 min 28 sec) 
Heartbeat CPU 1 instructions: 890000000 cycles: 1553502572 heartbeat IPC: 0.794584 cumulative IPC: 0.497957 (Simulation time: 2 hr 56 min 17 sec) 
Heartbeat CPU 2 instructions: 1940000000 cycles: 1555627951 heartbeat IPC: 1.07951 cumulative IPC: 1.09565 (Simulation time: 2 hr 56 min 33 sec) 
Heartbeat CPU 2 instructions: 1950000000 cycles: 1564464601 heartbeat IPC: 1.13165 cumulative IPC: 1.09588 (Simulation time: 2 hr 57 min 34 sec) 
Heartbeat CPU 1 instructions: 900000000 cycles: 1566092469 heartbeat IPC: 0.794288 cumulative IPC: 0.500625 (Simulation time: 2 hr 57 min 46 sec) 
Heartbeat CPU 3 instructions: 670000000 cycles: 1571974206 heartbeat IPC: 0.290294 cumulative IPC: 0.290657 (Simulation time: 2 hr 58 min 26 sec) 
Heartbeat CPU 2 instructions: 1960000000 cycles: 1575054777 heartbeat IPC: 0.944271 cumulative IPC: 1.09473 (Simulation time: 2 hr 58 min 47 sec) 
Heartbeat CPU 1 instructions: 910000002 cycles: 1578983921 heartbeat IPC: 0.775708 cumulative IPC: 0.503138 (Simulation time: 2 hr 59 min 14 sec) 
Heartbeat CPU 2 instructions: 1970000000 cycles: 1584418156 heartbeat IPC: 1.06799 cumulative IPC: 1.09456 (Simulation time: 2 hr 59 min 51 sec) 
Heartbeat CPU 0 instructions: 670000003 cycles: 1589310571 heartbeat IPC: 0.221543 cumulative IPC: 0.231421 (Simulation time: 3 hr 0 min 23 sec) 
Heartbeat CPU 1 instructions: 920000000 cycles: 1591590989 heartbeat IPC: 0.793206 cumulative IPC: 0.505706 (Simulation time: 3 hr 0 min 39 sec) 
Heartbeat CPU 2 instructions: 1980000000 cycles: 1593315425 heartbeat IPC: 1.12394 cumulative IPC: 1.09474 (Simulation time: 3 hr 0 min 50 sec) 
Heartbeat CPU 2 instructions: 1990000000 cycles: 1602280162 heartbeat IPC: 1.11548 cumulative IPC: 1.09487 (Simulation time: 3 hr 1 min 51 sec) 
Heartbeat CPU 1 instructions: 930000001 cycles: 1604205335 heartbeat IPC: 0.792748 cumulative IPC: 0.508227 (Simulation time: 3 hr 2 min 4 sec) 
Heartbeat CPU 3 instructions: 680000000 cycles: 1606816495 heartbeat IPC: 0.287008 cumulative IPC: 0.290568 (Simulation time: 3 hr 2 min 22 sec) 
*** Reached end of trace for Core: 2 Repeating trace: /home/ubuntu/PPF_Paper_Source_Code-master/traces/603.bwaves_s-1080B.champsimtrace.xz
Heartbeat CPU 2 instructions: 2000000000 cycles: 1611848620 heartbeat IPC: 1.0451 cumulative IPC: 1.09454 (Simulation time: 3 hr 2 min 57 sec) 
Heartbeat CPU 1 instructions: 940000000 cycles: 1616809653 heartbeat IPC: 0.793379 cumulative IPC: 0.510708 (Simulation time: 3 hr 3 min 31 sec) 
Heartbeat CPU 2 instructions: 2010000003 cycles: 1621674019 heartbeat IPC: 1.01777 cumulative IPC: 1.09402 (Simulation time: 3 hr 4 min 6 sec) 
Heartbeat CPU 1 instructions: 950000003 cycles: 1629650541 heartbeat IPC: 0.778763 cumulative IPC: 0.513062 (Simulation time: 3 hr 5 min 2 sec) 
Heartbeat CPU 2 instructions: 2020000000 cycles: 1632042552 heartbeat IPC: 0.964456 cumulative IPC: 1.0931 (Simulation time: 3 hr 5 min 18 sec) 
Heartbeat CPU 0 instructions: 680000000 cycles: 1636613519 heartbeat IPC: 0.211403 cumulative IPC: 0.230776 (Simulation time: 3 hr 5 min 50 sec) 
Heartbeat CPU 2 instructions: 2030000001 cycles: 1640568524 heartbeat IPC: 1.17289 cumulative IPC: 1.09357 (Simulation time: 3 hr 6 min 18 sec) 
Heartbeat CPU 3 instructions: 690000001 cycles: 1642216406 heartbeat IPC: 0.282487 cumulative IPC: 0.290374 (Simulation time: 3 hr 6 min 29 sec) 
Heartbeat CPU 1 instructions: 960000000 cycles: 1642272434 heartbeat IPC: 0.792274 cumulative IPC: 0.515453 (Simulation time: 3 hr 6 min 30 sec) 
Heartbeat CPU 2 instructions: 2040000000 cycles: 1649108729 heartbeat IPC: 1.17093 cumulative IPC: 1.09401 (Simulation time: 3 hr 7 min 19 sec) 
Heartbeat CPU 1 instructions: 970000000 cycles: 1654901934 heartbeat IPC: 0.791797 cumulative IPC: 0.5178 (Simulation time: 3 hr 7 min 59 sec) 
Heartbeat CPU 2 instructions: 2050000000 cycles: 1657712484 heartbeat IPC: 1.16228 cumulative IPC: 1.09441 (Simulation time: 3 hr 8 min 18 sec) 
Heartbeat CPU 2 instructions: 2060000000 cycles: 1666541329 heartbeat IPC: 1.13265 cumulative IPC: 1.09463 (Simulation time: 3 hr 9 min 17 sec) 
Heartbeat CPU 1 instructions: 980000000 cycles: 1667529758 heartbeat IPC: 0.791902 cumulative IPC: 0.520108 (Simulation time: 3 hr 9 min 24 sec) 
Heartbeat CPU 2 instructions: 2070000000 cycles: 1675346022 heartbeat IPC: 1.13576 cumulative IPC: 1.09487 (Simulation time: 3 hr 10 min 19 sec) 
Heartbeat CPU 3 instructions: 700000000 cycles: 1676182794 heartbeat IPC: 0.294409 cumulative IPC: 0.290465 (Simulation time: 3 hr 10 min 25 sec) 
Heartbeat CPU 1 instructions: 990000000 cycles: 1680159925 heartbeat IPC: 0.791755 cumulative IPC: 0.522376 (Simulation time: 3 hr 10 min 52 sec) 
Heartbeat CPU 0 instructions: 690000000 cycles: 1681715590 heartbeat IPC: 0.221719 cumulative IPC: 0.230506 (Simulation time: 3 hr 11 min 2 sec) 
Heartbeat CPU 2 instructions: 2080000000 cycles: 1684172324 heartbeat IPC: 1.13298 cumulative IPC: 1.09509 (Simulation time: 3 hr 11 min 19 sec) 
Heartbeat CPU 1 instructions: 1000000000 cycles: 1692776714 heartbeat IPC: 0.792595 cumulative IPC: 0.524612 (Simulation time: 3 hr 12 min 18 sec) 
Heartbeat CPU 2 instructions: 2090000000 cycles: 1693019136 heartbeat IPC: 1.13035 cumulative IPC: 1.0953 (Simulation time: 3 hr 12 min 20 sec) 
Heartbeat CPU 2 instructions: 2100000000 cycles: 1701874414 heartbeat IPC: 1.12927 cumulative IPC: 1.0955 (Simulation time: 3 hr 13 min 19 sec) 
Heartbeat CPU 1 instructions: 1010000002 cycles: 1705448842 heartbeat IPC: 0.789134 cumulative IPC: 0.526792 (Simulation time: 3 hr 13 min 43 sec) 
Heartbeat CPU 3 instructions: 710000000 cycles: 1708700607 heartbeat IPC: 0.307524 cumulative IPC: 0.290825 (Simulation time: 3 hr 14 min 5 sec) 
Heartbeat CPU 2 instructions: 2110000001 cycles: 1710675077 heartbeat IPC: 1.13628 cumulative IPC: 1.09573 (Simulation time: 3 hr 14 min 18 sec) 
Heartbeat CPU 1 instructions: 1020000000 cycles: 1718103991 heartbeat IPC: 0.790192 cumulative IPC: 0.528942 (Simulation time: 3 hr 15 min 9 sec) 
Heartbeat CPU 2 instructions: 2120000000 cycles: 1719441601 heartbeat IPC: 1.1407 cumulative IPC: 1.09598 (Simulation time: 3 hr 15 min 19 sec) 
Heartbeat CPU 0 instructions: 700000000 cycles: 1725059018 heartbeat IPC: 0.230715 cumulative IPC: 0.230512 (Simulation time: 3 hr 15 min 58 sec) 
Heartbeat CPU 2 instructions: 2130000000 cycles: 1728197337 heartbeat IPC: 1.14211 cumulative IPC: 1.09624 (Simulation time: 3 hr 16 min 19 sec) 
Heartbeat CPU 1 instructions: 1030000001 cycles: 1732141827 heartbeat IPC: 0.712361 cumulative IPC: 0.530588 (Simulation time: 3 hr 16 min 44 sec) 
Heartbeat CPU 2 instructions: 2140000000 cycles: 1736954165 heartbeat IPC: 1.14197 cumulative IPC: 1.0965 (Simulation time: 3 hr 17 min 17 sec) 
Heartbeat CPU 3 instructions: 720000000 cycles: 1741576032 heartbeat IPC: 0.304179 cumulative IPC: 0.291104 (Simulation time: 3 hr 17 min 47 sec) 
Heartbeat CPU 1 instructions: 1040000000 cycles: 1745500147 heartbeat IPC: 0.748597 cumulative IPC: 0.532434 (Simulation time: 3 hr 18 min 13 sec) 
Heartbeat CPU 2 instructions: 2150000002 cycles: 1745773416 heartbeat IPC: 1.13388 cumulative IPC: 1.0967 (Simulation time: 3 hr 18 min 15 sec) 
Heartbeat CPU 2 instructions: 2160000000 cycles: 1754588138 heartbeat IPC: 1.13447 cumulative IPC: 1.09691 (Simulation time: 3 hr 19 min 14 sec) 
Heartbeat CPU 1 instructions: 1050000000 cycles: 1758643694 heartbeat IPC: 0.76083 cumulative IPC: 0.534321 (Simulation time: 3 hr 19 min 43 sec) 
Heartbeat CPU 2 instructions: 2170000002 cycles: 1763452483 heartbeat IPC: 1.12812 cumulative IPC: 1.09709 (Simulation time: 3 hr 20 min 15 sec) 
Heartbeat CPU 0 instructions: 710000001 cycles: 1764481795 heartbeat IPC: 0.253661 cumulative IPC: 0.231084 (Simulation time: 3 hr 20 min 22 sec) 
Heartbeat CPU 1 instructions: 1060000000 cycles: 1771806930 heartbeat IPC: 0.759692 cumulative IPC: 0.536171 (Simulation time: 3 hr 21 min 11 sec) 
Heartbeat CPU 2 instructions: 2180000000 cycles: 1772253720 heartbeat IPC: 1.1362 cumulative IPC: 1.0973 (Simulation time: 3 hr 21 min 14 sec) 
Heartbeat CPU 3 instructions: 730000000 cycles: 1773720827 heartbeat IPC: 0.311092 cumulative IPC: 0.291504 (Simulation time: 3 hr 21 min 24 sec) 
Heartbeat CPU 2 instructions: 2190000001 cycles: 1781104788 heartbeat IPC: 1.12981 cumulative IPC: 1.09748 (Simulation time: 3 hr 22 min 14 sec) 
Heartbeat CPU 1 instructions: 1070000001 cycles: 1785006805 heartbeat IPC: 0.757583 cumulative IPC: 0.537978 (Simulation time: 3 hr 22 min 40 sec) 
Heartbeat CPU 2 instructions: 2200000000 cycles: 1789963173 heartbeat IPC: 1.12887 cumulative IPC: 1.09765 (Simulation time: 3 hr 23 min 15 sec) 
Heartbeat CPU 1 instructions: 1080000000 cycles: 1798169559 heartbeat IPC: 0.759719 cumulative IPC: 0.539768 (Simulation time: 3 hr 24 min 10 sec) 
Heartbeat CPU 2 instructions: 2210000003 cycles: 1798789438 heartbeat IPC: 1.13298 cumulative IPC: 1.09784 (Simulation time: 3 hr 24 min 15 sec) 
Heartbeat CPU 0 instructions: 720000000 cycles: 1802303432 heartbeat IPC: 0.264399 cumulative IPC: 0.231855 (Simulation time: 3 hr 24 min 40 sec) 
Heartbeat CPU 3 instructions: 740000000 cycles: 1805896311 heartbeat IPC: 0.310796 cumulative IPC: 0.291883 (Simulation time: 3 hr 25 min 4 sec) 
Heartbeat CPU 2 instructions: 2220000000 cycles: 1807637709 heartbeat IPC: 1.13016 cumulative IPC: 1.09802 (Simulation time: 3 hr 25 min 16 sec) 
Heartbeat CPU 1 instructions: 1090000003 cycles: 1811364651 heartbeat IPC: 0.757858 cumulative IPC: 0.541519 (Simulation time: 3 hr 25 min 41 sec) 
Heartbeat CPU 2 instructions: 2230000001 cycles: 1816467055 heartbeat IPC: 1.13259 cumulative IPC: 1.0982 (Simulation time: 3 hr 26 min 15 sec) 
Heartbeat CPU 1 instructions: 1100000000 cycles: 1824786924 heartbeat IPC: 0.74503 cumulative IPC: 0.543168 (Simulation time: 3 hr 27 min 12 sec) 
Heartbeat CPU 2 instructions: 2240000000 cycles: 1825319809 heartbeat IPC: 1.12959 cumulative IPC: 1.09837 (Simulation time: 3 hr 27 min 16 sec) 
Heartbeat CPU 2 instructions: 2250000003 cycles: 1834168445 heartbeat IPC: 1.13012 cumulative IPC: 1.09854 (Simulation time: 3 hr 28 min 15 sec) 
Heartbeat CPU 1 instructions: 1110000001 cycles: 1837992187 heartbeat IPC: 0.757274 cumulative IPC: 0.544861 (Simulation time: 3 hr 28 min 40 sec) 
Heartbeat CPU 3 instructions: 750000001 cycles: 1838537479 heartbeat IPC: 0.306362 cumulative IPC: 0.292166 (Simulation time: 3 hr 28 min 44 sec) 
Heartbeat CPU 2 instructions: 2260000000 cycles: 1842999026 heartbeat IPC: 1.13243 cumulative IPC: 1.09872 (Simulation time: 3 hr 29 min 14 sec) 
Heartbeat CPU 0 instructions: 730000002 cycles: 1846963269 heartbeat IPC: 0.223915 cumulative IPC: 0.231643 (Simulation time: 3 hr 29 min 40 sec) 
Heartbeat CPU 1 instructions: 1120000000 cycles: 1851144030 heartbeat IPC: 0.76035 cumulative IPC: 0.546544 (Simulation time: 3 hr 30 min 9 sec) 
Heartbeat CPU 2 instructions: 2270000001 cycles: 1851851169 heartbeat IPC: 1.12967 cumulative IPC: 1.09888 (Simulation time: 3 hr 30 min 14 sec) 
Heartbeat CPU 2 instructions: 2280000000 cycles: 1860697548 heartbeat IPC: 1.13041 cumulative IPC: 1.09905 (Simulation time: 3 hr 31 min 13 sec) 
Heartbeat CPU 1 instructions: 1130000002 cycles: 1864376304 heartbeat IPC: 0.755728 cumulative IPC: 0.548176 (Simulation time: 3 hr 31 min 37 sec) 
Heartbeat CPU 2 instructions: 2290000001 cycles: 1869525237 heartbeat IPC: 1.1328 cumulative IPC: 1.09922 (Simulation time: 3 hr 32 min 10 sec) 
Heartbeat CPU 3 instructions: 760000000 cycles: 1872389264 heartbeat IPC: 0.295405 cumulative IPC: 0.29223 (Simulation time: 3 hr 32 min 31 sec) 
Heartbeat CPU 1 instructions: 1140000000 cycles: 1877577080 heartbeat IPC: 0.757531 cumulative IPC: 0.549792 (Simulation time: 3 hr 33 min 7 sec) 
Heartbeat CPU 2 instructions: 2300000000 cycles: 1878373339 heartbeat IPC: 1.13019 cumulative IPC: 1.09938 (Simulation time: 3 hr 33 min 13 sec) 
Heartbeat CPU 2 instructions: 2310000001 cycles: 1887199974 heartbeat IPC: 1.13293 cumulative IPC: 1.09955 (Simulation time: 3 hr 34 min 11 sec) 
Heartbeat CPU 0 instructions: 740000000 cycles: 1888282949 heartbeat IPC: 0.242015 cumulative IPC: 0.231892 (Simulation time: 3 hr 34 min 18 sec) 
Heartbeat CPU 1 instructions: 1150000003 cycles: 1890792840 heartbeat IPC: 0.756673 cumulative IPC: 0.551379 (Simulation time: 3 hr 34 min 35 sec) 
Heartbeat CPU 2 instructions: 2320000000 cycles: 1896052427 heartbeat IPC: 1.12963 cumulative IPC: 1.09971 (Simulation time: 3 hr 35 min 12 sec) 
Heartbeat CPU 1 instructions: 1160000000 cycles: 1903956034 heartbeat IPC: 0.759694 cumulative IPC: 0.552959 (Simulation time: 3 hr 36 min 5 sec) 
Heartbeat CPU 2 instructions: 2330000003 cycles: 1904877689 heartbeat IPC: 1.13311 cumulative IPC: 1.09988 (Simulation time: 3 hr 36 min 11 sec) 
Heartbeat CPU 3 instructions: 770000003 cycles: 1906572102 heartbeat IPC: 0.292545 cumulative IPC: 0.292236 (Simulation time: 3 hr 36 min 23 sec) 
Heartbeat CPU 2 instructions: 2340000000 cycles: 1913685343 heartbeat IPC: 1.13538 cumulative IPC: 1.10006 (Simulation time: 3 hr 37 min 10 sec) 
Heartbeat CPU 1 instructions: 1170000003 cycles: 1917128456 heartbeat IPC: 0.759162 cumulative IPC: 0.554511 (Simulation time: 3 hr 37 min 33 sec) 
Heartbeat CPU 2 instructions: 2350000003 cycles: 1922451159 heartbeat IPC: 1.1408 cumulative IPC: 1.10026 (Simulation time: 3 hr 38 min 10 sec) 
Heartbeat CPU 1 instructions: 1180000000 cycles: 1930286150 heartbeat IPC: 0.760011 cumulative IPC: 0.556045 (Simulation time: 3 hr 39 min 2 sec) 
Heartbeat CPU 2 instructions: 2360000000 cycles: 1931195385 heartbeat IPC: 1.14361 cumulative IPC: 1.10047 (Simulation time: 3 hr 39 min 9 sec) 
Heartbeat CPU 0 instructions: 750000001 cycles: 1933005880 heartbeat IPC: 0.223599 cumulative IPC: 0.231682 (Simulation time: 3 hr 39 min 21 sec) 
Heartbeat CPU 2 instructions: 2370000001 cycles: 1939957826 heartbeat IPC: 1.14123 cumulative IPC: 1.10068 (Simulation time: 3 hr 40 min 7 sec) 
Heartbeat CPU 3 instructions: 780000000 cycles: 1940905473 heartbeat IPC: 0.291262 cumulative IPC: 0.292218 (Simulation time: 3 hr 40 min 14 sec) 
Heartbeat CPU 1 instructions: 1190000003 cycles: 1943483321 heartbeat IPC: 0.757738 cumulative IPC: 0.557545 (Simulation time: 3 hr 40 min 33 sec) 
Heartbeat CPU 2 instructions: 2380000000 cycles: 1948764078 heartbeat IPC: 1.13556 cumulative IPC: 1.10085 (Simulation time: 3 hr 41 min 9 sec) 
Heartbeat CPU 1 instructions: 1200000000 cycles: 1956674961 heartbeat IPC: 0.758056 cumulative IPC: 0.559023 (Simulation time: 3 hr 42 min 2 sec) 
Finished CPU 1 instructions: 1000000000 cycles: 1788834693 cumulative IPC: 0.559023 (Simulation time: 3 hr 42 min 2 sec) 
Heartbeat CPU 2 instructions: 2390000000 cycles: 1957627959 heartbeat IPC: 1.12817 cumulative IPC: 1.10098 (Simulation time: 3 hr 42 min 9 sec) 
Heartbeat CPU 2 instructions: 2400000000 cycles: 1966438280 heartbeat IPC: 1.13503 cumulative IPC: 1.10115 (Simulation time: 3 hr 43 min 8 sec) 
Heartbeat CPU 1 instructions: 1210000002 cycles: 1969846371 heartbeat IPC: 0.75922 cumulative IPC: 0.560486 (Simulation time: 3 hr 43 min 31 sec) 
Heartbeat CPU 2 instructions: 2410000000 cycles: 1975266155 heartbeat IPC: 1.13278 cumulative IPC: 1.1013 (Simulation time: 3 hr 44 min 7 sec) 
Heartbeat CPU 3 instructions: 790000002 cycles: 1975985649 heartbeat IPC: 0.285061 cumulative IPC: 0.292079 (Simulation time: 3 hr 44 min 11 sec) 
Heartbeat CPU 0 instructions: 760000000 cycles: 1978266560 heartbeat IPC: 0.220942 cumulative IPC: 0.231414 (Simulation time: 3 hr 44 min 27 sec) 
Heartbeat CPU 1 instructions: 1220000000 cycles: 1983035123 heartbeat IPC: 0.758222 cumulative IPC: 0.561923 (Simulation time: 3 hr 45 min 0 sec) 
Heartbeat CPU 2 instructions: 2420000000 cycles: 1984081898 heartbeat IPC: 1.13433 cumulative IPC: 1.10147 (Simulation time: 3 hr 45 min 7 sec) 
Heartbeat CPU 2 instructions: 2430000002 cycles: 1992914791 heartbeat IPC: 1.13213 cumulative IPC: 1.10161 (Simulation time: 3 hr 46 min 7 sec) 
Heartbeat CPU 1 instructions: 1230000003 cycles: 1996207088 heartbeat IPC: 0.759188 cumulative IPC: 0.563344 (Simulation time: 3 hr 46 min 29 sec) 
Heartbeat CPU 2 instructions: 2440000000 cycles: 2001466508 heartbeat IPC: 1.16936 cumulative IPC: 1.10193 (Simulation time: 3 hr 47 min 5 sec) 
Heartbeat CPU 1 instructions: 1240000000 cycles: 2009404828 heartbeat IPC: 0.757705 cumulative IPC: 0.564737 (Simulation time: 3 hr 47 min 59 sec) 
Heartbeat CPU 2 instructions: 2450000001 cycles: 2009992299 heartbeat IPC: 1.17291 cumulative IPC: 1.10226 (Simulation time: 3 hr 48 min 4 sec) 
Heartbeat CPU 3 instructions: 800000000 cycles: 2011169269 heartbeat IPC: 0.284223 cumulative IPC: 0.291929 (Simulation time: 3 hr 48 min 12 sec) 
Heartbeat CPU 2 instructions: 2460000000 cycles: 2018529531 heartbeat IPC: 1.17134 cumulative IPC: 1.10258 (Simulation time: 3 hr 49 min 3 sec) 
Heartbeat CPU 1 instructions: 1250000002 cycles: 2022614695 heartbeat IPC: 0.75701 cumulative IPC: 0.566107 (Simulation time: 3 hr 49 min 31 sec) 
Heartbeat CPU 0 instructions: 770000002 cycles: 2024910965 heartbeat IPC: 0.214388 cumulative IPC: 0.230986 (Simulation time: 3 hr 49 min 47 sec) 
Heartbeat CPU 2 instructions: 2470000000 cycles: 2029203505 heartbeat IPC: 0.936858 cumulative IPC: 1.10163 (Simulation time: 3 hr 50 min 17 sec) 
Heartbeat CPU 1 instructions: 1260000000 cycles: 2036055083 heartbeat IPC: 0.744026 cumulative IPC: 0.567387 (Simulation time: 3 hr 51 min 4 sec) 
Heartbeat CPU 2 instructions: 2480000000 cycles: 2038548715 heartbeat IPC: 1.07007 cumulative IPC: 1.10147 (Simulation time: 3 hr 51 min 21 sec) 
Heartbeat CPU 2 instructions: 2490000000 cycles: 2047386268 heartbeat IPC: 1.13153 cumulative IPC: 1.10161 (Simulation time: 3 hr 52 min 21 sec) 
Heartbeat CPU 3 instructions: 810000002 cycles: 2048074108 heartbeat IPC: 0.270967 cumulative IPC: 0.291517 (Simulation time: 3 hr 52 min 25 sec) 
Heartbeat CPU 1 instructions: 1270000000 cycles: 2049208883 heartbeat IPC: 0.760237 cumulative IPC: 0.568735 (Simulation time: 3 hr 52 min 33 sec) 
Heartbeat CPU 2 instructions: 2500000000 cycles: 2056263890 heartbeat IPC: 1.12643 cumulative IPC: 1.10173 (Simulation time: 3 hr 53 min 22 sec) 
Heartbeat CPU 1 instructions: 1280000000 cycles: 2062408383 heartbeat IPC: 0.757604 cumulative IPC: 0.570051 (Simulation time: 3 hr 54 min 3 sec) 
Heartbeat CPU 2 instructions: 2510000003 cycles: 2065219816 heartbeat IPC: 1.11658 cumulative IPC: 1.1018 (Simulation time: 3 hr 54 min 22 sec) 
Heartbeat CPU 0 instructions: 780000000 cycles: 2067920090 heartbeat IPC: 0.232509 cumulative IPC: 0.231021 (Simulation time: 3 hr 54 min 41 sec) 
Heartbeat CPU 2 instructions: 2520000000 cycles: 2074178238 heartbeat IPC: 1.11627 cumulative IPC: 1.10186 (Simulation time: 3 hr 55 min 23 sec) 
Heartbeat CPU 1 instructions: 1290000000 cycles: 2075606620 heartbeat IPC: 0.757677 cumulative IPC: 0.571349 (Simulation time: 3 hr 55 min 32 sec) 
Heartbeat CPU 3 instructions: 820000000 cycles: 2083459567 heartbeat IPC: 0.282602 cumulative IPC: 0.291353 (Simulation time: 3 hr 56 min 22 sec) 
[...]
Heartbeat CPU 3 instructions: 1470000002 cycles: 4369120815 heartbeat IPC: 0.280605 cumulative IPC: 0.28756 (Simulation time: 7 hr 47 min 57 sec) 
Heartbeat CPU 2 instructions: 5050000000 cycles: 4376049023 heartbeat IPC: 1.17137 cumulative IPC: 1.10036 (Simulation time: 7 hr 48 min 44 sec) 
Heartbeat CPU 1 instructions: 2720000000 cycles: 4380184310 heartbeat IPC: 0.82927 cumulative IPC: 0.598242 (Simulation time: 7 hr 49 min 11 sec) 
Heartbeat CPU 0 instructions: 1310000001 cycles: 4384142395 heartbeat IPC: 0.210195 cumulative IPC: 0.229812 (Simulation time: 7 hr 49 min 38 sec) 
Heartbeat CPU 2 instructions: 5060000000 cycles: 4384879639 heartbeat IPC: 1.13242 cumulative IPC: 1.10042 (Simulation time: 7 hr 49 min 44 sec) 
Heartbeat CPU 1 instructions: 2730000001 cycles: 4392224951 heartbeat IPC: 0.830521 cumulative IPC: 0.598904 (Simulation time: 7 hr 50 min 33 sec) 
Heartbeat CPU 2 instructions: 5070000002 cycles: 4393925774 heartbeat IPC: 1.10544 cumulative IPC: 1.10043 (Simulation time: 7 hr 50 min 44 sec) 
Heartbeat CPU 2 instructions: 5080000000 cycles: 4403241678 heartbeat IPC: 1.07343 cumulative IPC: 1.10037 (Simulation time: 7 hr 51 min 47 sec) 
Heartbeat CPU 3 instructions: 1480000000 cycles: 4403590454 heartbeat IPC: 0.29011 cumulative IPC: 0.287581 (Simulation time: 7 hr 51 min 50 sec) 
Heartbeat CPU 1 instructions: 2740000000 cycles: 4404264111 heartbeat IPC: 0.830623 cumulative IPC: 0.599562 (Simulation time: 7 hr 51 min 54 sec) 
Heartbeat CPU 2 instructions: 5090000001 cycles: 4412713398 heartbeat IPC: 1.05577 cumulative IPC: 1.10027 (Simulation time: 7 hr 52 min 52 sec) 
Heartbeat CPU 1 instructions: 2750000003 cycles: 4416319967 heartbeat IPC: 0.829473 cumulative IPC: 0.600215 (Simulation time: 7 hr 53 min 17 sec) 
Heartbeat CPU 2 instructions: 5100000000 cycles: 4421918728 heartbeat IPC: 1.08633 cumulative IPC: 1.10024 (Simulation time: 7 hr 53 min 54 sec) 
Heartbeat CPU 1 instructions: 2760000000 cycles: 4428568371 heartbeat IPC: 0.816433 cumulative IPC: 0.600836 (Simulation time: 7 hr 54 min 39 sec) 
Heartbeat CPU 0 instructions: 1320000000 cycles: 4430018354 heartbeat IPC: 0.217979 cumulative IPC: 0.229685 (Simulation time: 7 hr 54 min 48 sec) 
Heartbeat CPU 2 instructions: 5110000000 cycles: 4430951141 heartbeat IPC: 1.10712 cumulative IPC: 1.10026 (Simulation time: 7 hr 54 min 54 sec) 
Heartbeat CPU 3 instructions: 1490000002 cycles: 4438011744 heartbeat IPC: 0.290518 cumulative IPC: 0.287605 (Simulation time: 7 hr 55 min 42 sec) 
Heartbeat CPU 2 instructions: 5120000000 cycles: 4439893803 heartbeat IPC: 1.11824 cumulative IPC: 1.1003 (Simulation time: 7 hr 55 min 55 sec) 
Heartbeat CPU 1 instructions: 2770000000 cycles: 4440655999 heartbeat IPC: 0.827292 cumulative IPC: 0.601477 (Simulation time: 7 hr 56 min 0 sec) 
Heartbeat CPU 2 instructions: 5130000002 cycles: 4449234877 heartbeat IPC: 1.07054 cumulative IPC: 1.10023 (Simulation time: 7 hr 56 min 59 sec) 
Heartbeat CPU 1 instructions: 2780000000 cycles: 4453160620 heartbeat IPC: 0.799704 cumulative IPC: 0.602055 (Simulation time: 7 hr 57 min 26 sec) 
Heartbeat CPU 2 instructions: 5140000000 cycles: 4458233878 heartbeat IPC: 1.11123 cumulative IPC: 1.10026 (Simulation time: 7 hr 58 min 1 sec) 
Heartbeat CPU 1 instructions: 2790000000 cycles: 4465715574 heartbeat IPC: 0.796498 cumulative IPC: 0.602623 (Simulation time: 7 hr 58 min 51 sec) 
Heartbeat CPU 2 instructions: 5150000000 cycles: 4467217880 heartbeat IPC: 1.11309 cumulative IPC: 1.10028 (Simulation time: 7 hr 59 min 2 sec) 
Heartbeat CPU 0 instructions: 1330000001 cycles: 4472896592 heartbeat IPC: 0.233219 cumulative IPC: 0.22972 (Simulation time: 7 hr 59 min 40 sec) 
Heartbeat CPU 3 instructions: 1500000000 cycles: 4473402187 heartbeat IPC: 0.282562 cumulative IPC: 0.287563 (Simulation time: 7 hr 59 min 43 sec) 
Heartbeat CPU 2 instructions: 5160000000 cycles: 4476354636 heartbeat IPC: 1.09448 cumulative IPC: 1.10027 (Simulation time: 8 hr 0 min 2 sec) 
Heartbeat CPU 1 instructions: 2800000000 cycles: 4478414379 heartbeat IPC: 0.787476 cumulative IPC: 0.603168 (Simulation time: 8 hr 0 min 16 sec) 
Heartbeat CPU 2 instructions: 5170000001 cycles: 4485353056 heartbeat IPC: 1.11131 cumulative IPC: 1.10029 (Simulation time: 8 hr 1 min 3 sec) 
Heartbeat CPU 1 instructions: 2810000000 cycles: 4491071333 heartbeat IPC: 0.79008 cumulative IPC: 0.603715 (Simulation time: 8 hr 1 min 40 sec) 
Heartbeat CPU 2 instructions: 5180000000 cycles: 4494478438 heartbeat IPC: 1.09584 cumulative IPC: 1.10028 (Simulation time: 8 hr 2 min 3 sec) 
Heartbeat CPU 2 instructions: 5190000002 cycles: 4503477262 heartbeat IPC: 1.11126 cumulative IPC: 1.10031 (Simulation time: 8 hr 3 min 2 sec) 
Heartbeat CPU 1 instructions: 2820000000 cycles: 4503678401 heartbeat IPC: 0.793206 cumulative IPC: 0.604266 (Simulation time: 8 hr 3 min 4 sec) 
Heartbeat CPU 3 instructions: 1510000000 cycles: 4509011968 heartbeat IPC: 0.280822 cumulative IPC: 0.287508 (Simulation time: 8 hr 3 min 38 sec) 
Heartbeat CPU 2 instructions: 5200000000 cycles: 4512597890 heartbeat IPC: 1.09642 cumulative IPC: 1.1003 (Simulation time: 8 hr 4 min 3 sec) 
Heartbeat CPU 1 instructions: 2830000003 cycles: 4516332438 heartbeat IPC: 0.790262 cumulative IPC: 0.604807 (Simulation time: 8 hr 4 min 28 sec) 
Heartbeat CPU 0 instructions: 1340000000 cycles: 4521205370 heartbeat IPC: 0.207002 cumulative IPC: 0.229468 (Simulation time: 8 hr 5 min 0 sec) 
Heartbeat CPU 2 instructions: 5210000000 cycles: 4521557167 heartbeat IPC: 1.11616 cumulative IPC: 1.10033 (Simulation time: 8 hr 5 min 3 sec) 
Finished CPU 0 instructions: 1000000002 cycles: 4358791311 cumulative IPC: 0.229421 (Simulation time: 8 hr 5 min 36 sec) 

CPU 0 Branch Prediction Accuracy: 99.2865% MPKI: 1.47635

CPU 1 Branch Prediction Accuracy: 99.6953% MPKI: 0.0313463

CPU 2 Branch Prediction Accuracy: 92.4108% MPKI: 10.2787

CPU 3 Branch Prediction Accuracy: 92.8358% MPKI: 15.0021

ChampSim completed all CPUs

Total Simulation Statistics (not including warmup)

CPU 0 cumulative IPC: 0.229421 instructions: 1000000002 cycles: 4358791311
L1D TOTAL     ACCESS:  232629911  HIT:  204417188  MISS:   28212723
L1D LOAD      ACCESS:  186745553  HIT:  159111896  MISS:   27633657
L1D RFO       ACCESS:   45884358  HIT:   45305292  MISS:     579066
L1D PREFETCH  ACCESS:          0  HIT:          0  MISS:          0
L1D WRITEBACK ACCESS:          0  HIT:          0  MISS:          0
L1I TOTAL     ACCESS:  320613865  HIT:  317222580  MISS:    3391285
L1I LOAD      ACCESS:  320613865  HIT:  317222580  MISS:    3391285
L1I RFO       ACCESS:          0  HIT:          0  MISS:          0
L1I PREFETCH  ACCESS:          0  HIT:          0  MISS:          0
L1I WRITEBACK ACCESS:          0  HIT:          0  MISS:          0
L2C TOTAL     ACCESS:   42028620  HIT:    7877824  MISS:   34150796
L2C LOAD      ACCESS:   31024298  HIT:    6060744  MISS:   24963554
L2C RFO       ACCESS:     578993  HIT:     268521  MISS:     310472
L2C PREFETCH  ACCESS:    9224317  HIT:     370555  MISS:    8853762
L2C WRITEBACK ACCESS:    1201012  HIT:    1178004  MISS:      23008

L2C DA-AMPM prefetcher final stats
LLC TOTAL     ACCESS:   34701444  HIT:    5934726  MISS:   28766718
LLC LOAD      ACCESS:   24698912  HIT:    3140369  MISS:   21558543
LLC RFO       ACCESS:     310315  HIT:      87339  MISS:     222976
LLC PREFETCH  ACCESS:    9118557  HIT:    2135715  MISS:    6982842
LLC WRITEBACK ACCESS:     573660  HIT:     571303  MISS:       2357

CPU 1 cumulative IPC: 0.605238 instructions: 2638107647 cycles: 4358791311
L1D TOTAL     ACCESS: 1287005533  HIT: 1234094227  MISS:   52911306
L1D LOAD      ACCESS: 1127888494  HIT: 1074977811  MISS:   52910683
L1D RFO       ACCESS:  159117039  HIT:  159116416  MISS:        623
L1D PREFETCH  ACCESS:          0  HIT:          0  MISS:          0
L1D WRITEBACK ACCESS:          0  HIT:          0  MISS:          0
L1I TOTAL     ACCESS:  718725713  HIT:  718725031  MISS:        682
L1I LOAD      ACCESS:  718725713  HIT:  718725031  MISS:        682
L1I RFO       ACCESS:          0  HIT:          0  MISS:          0
L1I PREFETCH  ACCESS:          0  HIT:          0  MISS:          0
L1I WRITEBACK ACCESS:          0  HIT:          0  MISS:          0
L2C TOTAL     ACCESS:  105523669  HIT:   53255430  MISS:   52268239
L2C LOAD      ACCESS:   52911359  HIT:   31911117  MISS:   21000242
L2C RFO       ACCESS:        613  HIT:        556  MISS:         57
L2C PREFETCH  ACCESS:   31324572  HIT:      59376  MISS:   31265196
L2C WRITEBACK ACCESS:   21287125  HIT:   21284381  MISS:       2744

L2C DA-AMPM prefetcher final stats
LLC TOTAL     ACCESS:   73530489  HIT:   27406533  MISS:   46123956
LLC LOAD      ACCESS:   20910443  HIT:    4954070  MISS:   15956373
LLC RFO       ACCESS:         56  HIT:         30  MISS:         26
LLC PREFETCH  ACCESS:   31354997  HIT:    1187940  MISS:   30167057
LLC WRITEBACK ACCESS:   21264993  HIT:   21264493  MISS:        500

CPU 2 cumulative IPC: 1.10033 instructions: 4796096642 cycles: 4358791312
L1D TOTAL     ACCESS:  857623825  HIT:  855937150  MISS:    1686675
L1D LOAD      ACCESS:  663754618  HIT:  663571625  MISS:     182993
L1D RFO       ACCESS:  193869207  HIT:  192365525  MISS:    1503682
L1D PREFETCH  ACCESS:          0  HIT:          0  MISS:          0
L1D WRITEBACK ACCESS:          0  HIT:          0  MISS:          0
L1I TOTAL     ACCESS: 1186886465  HIT: 1186886465  MISS:          0
L1I LOAD      ACCESS: 1186886465  HIT: 1186886465  MISS:          0
L1I RFO       ACCESS:          0  HIT:          0  MISS:          0
L1I PREFETCH  ACCESS:          0  HIT:          0  MISS:          0
L1I WRITEBACK ACCESS:          0  HIT:          0  MISS:          0
L2C TOTAL     ACCESS:    3326703  HIT:    1727191  MISS:    1599512
L2C LOAD      ACCESS:     182993  HIT:     170785  MISS:      12208
L2C RFO       ACCESS:    1503682  HIT:      50066  MISS:    1453616
L2C PREFETCH  ACCESS:     135915  HIT:       2261  MISS:     133654
L2C WRITEBACK ACCESS:    1504113  HIT:    1504079  MISS:         34

L2C DA-AMPM prefetcher final stats
LLC TOTAL     ACCESS:    3053214  HIT:     970003  MISS:    2083211
LLC LOAD      ACCESS:      12206  HIT:          0  MISS:      12206
LLC RFO       ACCESS:    1453616  HIT:         34  MISS:    1453582
LLC PREFETCH  ACCESS:     133656  HIT:          0  MISS:     133656
LLC WRITEBACK ACCESS:    1453736  HIT:     969969  MISS:     483767

CPU 3 cumulative IPC: 0.287509 instructions: 1253193288 cycles: 4358791312
L1D TOTAL     ACCESS:  429140724  HIT:  337904228  MISS:   91236496
L1D LOAD      ACCESS:  325999420  HIT:  238674783  MISS:   87324637
L1D RFO       ACCESS:  103141304  HIT:   99229445  MISS:    3911859
L1D PREFETCH  ACCESS:          0  HIT:          0  MISS:          0
L1D WRITEBACK ACCESS:          0  HIT:          0  MISS:          0
L1I TOTAL     ACCESS:  293273260  HIT:  293273260  MISS:          0
L1I LOAD      ACCESS:  293273260  HIT:  293273260  MISS:          0
L1I RFO       ACCESS:          0  HIT:          0  MISS:          0
L1I PREFETCH  ACCESS:          0  HIT:          0  MISS:          0
L1I WRITEBACK ACCESS:          0  HIT:          0  MISS:          0
L2C TOTAL     ACCESS:  123693091  HIT:   40874115  MISS:   82818976
L2C LOAD      ACCESS:   87324233  HIT:   33192704  MISS:   54131529
L2C RFO       ACCESS:    3911800  HIT:     640029  MISS:    3271771
L2C PREFETCH  ACCESS:   26020150  HIT:     612846  MISS:   25407304
L2C WRITEBACK ACCESS:    6436908  HIT:    6428536  MISS:       8372

L2C DA-AMPM prefetcher final stats
LLC TOTAL     ACCESS:   88277314  HIT:   55555093  MISS:   32722221
LLC LOAD      ACCESS:   52619412  HIT:   43300316  MISS:    9319096
LLC RFO       ACCESS:    3271659  HIT:    3248942  MISS:      22717
LLC PREFETCH  ACCESS:   26919443  HIT:    3539911  MISS:   23379532
LLC WRITEBACK ACCESS:    5466800  HIT:    5465924  MISS:        876

Region of Interest Statistics

CPU 0 cumulative IPC: 0.229421 instructions: 1000000002 cycles: 4358791311
L1D TOTAL     ACCESS:  232629911  HIT:  204417188  MISS:   28212723
L1D LOAD      ACCESS:  186745553  HIT:  159111896  MISS:   27633657
L1D RFO       ACCESS:   45884358  HIT:   45305292  MISS:     579066
L1D PREFETCH  ACCESS:          0  HIT:          0  MISS:          0
L1D WRITEBACK ACCESS:          0  HIT:          0  MISS:          0
L1D PREFETCH  REQUESTED:          0  ISSUED:          0  USEFUL:          0  USELESS:          0
L1I TOTAL     ACCESS:  320613865  HIT:  317222580  MISS:    3391285
L1I LOAD      ACCESS:  320613865  HIT:  317222580  MISS:    3391285
L1I RFO       ACCESS:          0  HIT:          0  MISS:          0
L1I PREFETCH  ACCESS:          0  HIT:          0  MISS:          0
L1I WRITEBACK ACCESS:          0  HIT:          0  MISS:          0
L1I PREFETCH  REQUESTED:          0  ISSUED:          0  USEFUL:          0  USELESS:          0
L2C TOTAL     ACCESS:   42028620  HIT:    7877824  MISS:   34150796
L2C LOAD      ACCESS:   31024298  HIT:    6060744  MISS:   24963554
L2C RFO       ACCESS:     578993  HIT:     268521  MISS:     310472
L2C PREFETCH  ACCESS:    9224317  HIT:     370555  MISS:    8853762
L2C WRITEBACK ACCESS:    1201012  HIT:    1178004  MISS:      23008
L2C PREFETCH  REQUESTED:   13964495  ISSUED:   13964495  USEFUL:    2959311  USELESS:    9066827
LLC TOTAL     ACCESS:   34701444  HIT:    5934726  MISS:   28766718
LLC LOAD      ACCESS:   24698912  HIT:    3140369  MISS:   21558543
LLC RFO       ACCESS:     310315  HIT:      87339  MISS:     222976
LLC PREFETCH  ACCESS:    9118557  HIT:    2135715  MISS:    6982842
LLC WRITEBACK ACCESS:     573660  HIT:     571303  MISS:       2357
LLC PREFETCH  REQUESTED:          0  ISSUED:          0  USEFUL:    2263492  USELESS:   65858658
Major fault: 0 Minor fault: 13556

CPU 1 cumulative IPC: 0.559023 instructions: 1000000000 cycles: 1788834693
L1D TOTAL     ACCESS:  562575315  HIT:  541846958  MISS:   20728357
L1D LOAD      ACCESS:  498230855  HIT:  477502826  MISS:   20728029
L1D RFO       ACCESS:   64344460  HIT:   64344132  MISS:        328
L1D PREFETCH  ACCESS:          0  HIT:          0  MISS:          0
L1D WRITEBACK ACCESS:          0  HIT:          0  MISS:          0
L1D PREFETCH  REQUESTED:          0  ISSUED:          0  USEFUL:          0  USELESS:          0
L1I TOTAL     ACCESS:  291568596  HIT:  291568262  MISS:        334
L1I LOAD      ACCESS:  291568596  HIT:  291568262  MISS:        334
L1I RFO       ACCESS:          0  HIT:          0  MISS:          0
L1I PREFETCH  ACCESS:          0  HIT:          0  MISS:          0
L1I WRITEBACK ACCESS:          0  HIT:          0  MISS:          0
L1I PREFETCH  REQUESTED:          0  ISSUED:          0  USEFUL:          0  USELESS:          0
L2C TOTAL     ACCESS:   40797787  HIT:   21349929  MISS:   19447858
L2C LOAD      ACCESS:   20728358  HIT:   12536611  MISS:    8191747
L2C RFO       ACCESS:        318  HIT:        293  MISS:         25
L2C PREFETCH  ACCESS:   11271654  HIT:      15589  MISS:   11256065
L2C WRITEBACK ACCESS:    8797457  HIT:    8797436  MISS:         21
L2C PREFETCH  REQUESTED:   32662183  ISSUED:   32662183  USEFUL:   27396017  USELESS:    5092956
LLC TOTAL     ACCESS:   28241372  HIT:   11376242  MISS:   16865130
LLC LOAD      ACCESS:    8181683  HIT:    2053920  MISS:    6127763
LLC RFO       ACCESS:         24  HIT:         15  MISS:          9
LLC PREFETCH  ACCESS:   11266130  HIT:     528793  MISS:   10737337
LLC WRITEBACK ACCESS:    8793535  HIT:    8793514  MISS:         21
LLC PREFETCH  REQUESTED:          0  ISSUED:          0  USEFUL:    2263492  USELESS:   65858658
Major fault: 0 Minor fault: 941584

CPU 2 cumulative IPC: 1.09875 instructions: 1000000002 cycles: 910127186
L1D TOTAL     ACCESS:  179691826  HIT:  179313124  MISS:     378702
L1D LOAD      ACCESS:  138599295  HIT:  138558467  MISS:      40828
L1D RFO       ACCESS:   41092531  HIT:   40754657  MISS:     337874
L1D PREFETCH  ACCESS:          0  HIT:          0  MISS:          0
L1D WRITEBACK ACCESS:          0  HIT:          0  MISS:          0
L1D PREFETCH  REQUESTED:          0  ISSUED:          0  USEFUL:          0  USELESS:          0
L1I TOTAL     ACCESS:  247620034  HIT:  247620034  MISS:          0
L1I LOAD      ACCESS:  247620034  HIT:  247620034  MISS:          0
L1I RFO       ACCESS:          0  HIT:          0  MISS:          0
L1I PREFETCH  ACCESS:          0  HIT:          0  MISS:          0
L1I WRITEBACK ACCESS:          0  HIT:          0  MISS:          0
L1I PREFETCH  REQUESTED:          0  ISSUED:          0  USEFUL:          0  USELESS:          0
L2C TOTAL     ACCESS:     747341  HIT:     386771  MISS:     360570
L2C LOAD      ACCESS:      40828  HIT:      38129  MISS:       2699
L2C RFO       ACCESS:     337874  HIT:      10186  MISS:     327688
L2C PREFETCH  ACCESS:      30686  HIT:        511  MISS:      30175
L2C WRITEBACK ACCESS:     337953  HIT:     337945  MISS:          8
L2C PREFETCH  REQUESTED:     147072  ISSUED:     147072  USEFUL:     142072  USELESS:        155
LLC TOTAL     ACCESS:     688326  HIT:     228218  MISS:     460108
LLC LOAD      ACCESS:       2699  HIT:          0  MISS:       2699
LLC RFO       ACCESS:     327688  HIT:          4  MISS:     327684
LLC PREFETCH  ACCESS:      30175  HIT:          0  MISS:      30175
LLC WRITEBACK ACCESS:     327764  HIT:     228214  MISS:      99550
LLC PREFETCH  REQUESTED:          0  ISSUED:          0  USEFUL:    2263492  USELESS:   65858658
Major fault: 0 Minor fault: 10313

CPU 3 cumulative IPC: 0.287997 instructions: 1000000001 cycles: 3472255072
L1D TOTAL     ACCESS:  344454292  HIT:  273041585  MISS:   71412707
L1D LOAD      ACCESS:  261022927  HIT:  192781372  MISS:   68241555
L1D RFO       ACCESS:   83431365  HIT:   80260213  MISS:    3171152
L1D PREFETCH  ACCESS:          0  HIT:          0  MISS:          0
L1D WRITEBACK ACCESS:          0  HIT:          0  MISS:          0
L1D PREFETCH  REQUESTED:          0  ISSUED:          0  USEFUL:          0  USELESS:          0
L1I TOTAL     ACCESS:  233825498  HIT:  233825498  MISS:          0
L1I LOAD      ACCESS:  233825498  HIT:  233825498  MISS:          0
L1I RFO       ACCESS:          0  HIT:          0  MISS:          0
L1I PREFETCH  ACCESS:          0  HIT:          0  MISS:          0
L1I WRITEBACK ACCESS:          0  HIT:          0  MISS:          0
L1I PREFETCH  REQUESTED:          0  ISSUED:          0  USEFUL:          0  USELESS:          0
L2C TOTAL     ACCESS:   96941635  HIT:   32231014  MISS:   64710621
L2C LOAD      ACCESS:   68241267  HIT:   26083051  MISS:   42158216
L2C RFO       ACCESS:    3171096  HIT:     531757  MISS:    2639339
L2C PREFETCH  ACCESS:   20401423  HIT:     494986  MISS:   19906437
L2C WRITEBACK ACCESS:    5127849  HIT:    5121220  MISS:       6629
L2C PREFETCH  REQUESTED:   35496918  ISSUED:   35496918  USEFUL:   27235878  USELESS:    3776623
LLC TOTAL     ACCESS:   69030023  HIT:   43480140  MISS:   25549883
LLC LOAD      ACCESS:   40999825  HIT:   33644852  MISS:    7354973
LLC RFO       ACCESS:    2639270  HIT:    2621965  MISS:      17305
LLC PREFETCH  ACCESS:   21064824  HIT:    2887933  MISS:   18176891
LLC WRITEBACK ACCESS:    4326104  HIT:    4325390  MISS:        714
LLC PREFETCH  REQUESTED:          0  ISSUED:          0  USEFUL:    2263492  USELESS:   65858658
Major fault: 0 Minor fault: 443599

L2C DA-AMPM prefetcher final stats

L2C DA-AMPM prefetcher final stats

L2C DA-AMPM prefetcher final stats

L2C DA-AMPM prefetcher final stats

DRAM Statistics
 CHANNEL 0
 RQ ROW_BUFFER_HIT:   27222616  ROW_BUFFER_MISS:   27360771
 DBUS_CONGESTED:   63536289
 WQ ROW_BUFFER_HIT:    1058549  ROW_BUFFER_MISS:   10636847  FULL:          0

 CHANNEL 1
 RQ ROW_BUFFER_HIT:   27228175  ROW_BUFFER_MISS:   27396492
 DBUS_CONGESTED:   63536289
 WQ ROW_BUFFER_HIT:    1054112  ROW_BUFFER_MISS:   10630488  FULL:          0

 AVG_CONGESTED_CYCLE: 13
