Initialize SIGNATURE TABLE
ST_SET: 1
ST_WAY: 256
ST_TAG_BIT: 16
ST_TAG_MASK: ffff

Initialize PATTERN TABLE
PT_SET: 512
PT_WAY: 4
SIG_DELTA_BIT: 7
C_SIG_BIT: 4
C_DELTA_BIT: 4

Initialize PREFETCH FILTER
FILTER_SET: 1024

*** ChampSim Multicore Out-of-Order Simulator ***

Warmup Instructions: 200000000
Simulation Instructions: 1000000000
Number of CPUs: 4
LLC sets: 8192
LLC ways: 16
Off-chip DRAM Size: 8192 MB Channels: 2 Width: 64-bit Data Rate: 1600 MT/s

CPU 0 runs /home/ubuntu/PPF_Paper_Source_Code-master/traces/623.xalancbmk_s-10B.champsimtrace.xz
CPU 1 runs /home/ubuntu/PPF_Paper_Source_Code-master/traces/649.fotonik3d_s-10881B.champsimtrace.xz
CPU 2 runs /home/ubuntu/PPF_Paper_Source_Code-master/traces/603.bwaves_s-1080B.champsimtrace.xz
CPU 3 runs /home/ubuntu/PPF_Paper_Source_Code-master/traces/605.mcf_s-1152B.champsimtrace.xz
Heartbeat CPU 2 instructions: 10000003 cycles: 4334805 heartbeat IPC: 2.30691 cumulative IPC: 2.30691 (Simulation time: 0 hr 1 min 1 sec) 
Heartbeat CPU 0 instructions: 10000001 cycles: 4878988 heartbeat IPC: 2.04961 cumulative IPC: 2.04961 (Simulation time: 0 hr 1 min 9 sec) 
Heartbeat CPU 3 instructions: 10000001 cycles: 6540712 heartbeat IPC: 1.52889 cumulative IPC: 1.52889 (Simulation time: 0 hr 1 min 34 sec) 
Heartbeat CPU 1 instructions: 10000001 cycles: 8410175 heartbeat IPC: 1.18904 cumulative IPC: 1.18904 (Simulation time: 0 hr 2 min 1 sec) 
Heartbeat CPU 2 instructions: 20000000 cycles: 8838363 heartbeat IPC: 2.22047 cumulative IPC: 2.26286 (Simulation time: 0 hr 2 min 7 sec) 
Heartbeat CPU 0 instructions: 20000000 cycles: 9685114 heartbeat IPC: 2.08068 cumulative IPC: 2.06502 (Simulation time: 0 hr 2 min 19 sec) 
Heartbeat CPU 2 instructions: 30000000 cycles: 12796204 heartbeat IPC: 2.52663 cumulative IPC: 2.34445 (Simulation time: 0 hr 3 min 2 sec) 
Heartbeat CPU 3 instructions: 20000000 cycles: 13082667 heartbeat IPC: 1.52859 cumulative IPC: 1.52874 (Simulation time: 0 hr 3 min 6 sec) 
Heartbeat CPU 0 instructions: 30000000 cycles: 14590227 heartbeat IPC: 2.03869 cumulative IPC: 2.05617 (Simulation time: 0 hr 3 min 27 sec) 
Heartbeat CPU 2 instructions: 40000000 cycles: 16751562 heartbeat IPC: 2.52822 cumulative IPC: 2.38784 (Simulation time: 0 hr 3 min 56 sec) 
Heartbeat CPU 1 instructions: 20000000 cycles: 16791902 heartbeat IPC: 1.19307 cumulative IPC: 1.19105 (Simulation time: 0 hr 3 min 57 sec) 
Heartbeat CPU 0 instructions: 40000000 cycles: 19521294 heartbeat IPC: 2.02796 cumulative IPC: 2.04904 (Simulation time: 0 hr 4 min 33 sec) 
Heartbeat CPU 3 instructions: 30000001 cycles: 19611086 heartbeat IPC: 1.53176 cumulative IPC: 1.52975 (Simulation time: 0 hr 4 min 34 sec) 
Heartbeat CPU 2 instructions: 50000000 cycles: 20725188 heartbeat IPC: 2.51659 cumulative IPC: 2.41252 (Simulation time: 0 hr 4 min 50 sec) 
Heartbeat CPU 0 instructions: 50000001 cycles: 24431365 heartbeat IPC: 2.03663 cumulative IPC: 2.04655 (Simulation time: 0 hr 5 min 40 sec) 
Heartbeat CPU 2 instructions: 60000000 cycles: 24717426 heartbeat IPC: 2.50486 cumulative IPC: 2.42744 (Simulation time: 0 hr 5 min 44 sec) 
Heartbeat CPU 1 instructions: 30000000 cycles: 25169057 heartbeat IPC: 1.19372 cumulative IPC: 1.19194 (Simulation time: 0 hr 5 min 50 sec) 
Heartbeat CPU 3 instructions: 40000000 cycles: 26148313 heartbeat IPC: 1.5297 cumulative IPC: 1.52974 (Simulation time: 0 hr 6 min 4 sec) 
Heartbeat CPU 2 instructions: 70000000 cycles: 28704042 heartbeat IPC: 2.50839 cumulative IPC: 2.43868 (Simulation time: 0 hr 6 min 40 sec) 
Heartbeat CPU 0 instructions: 60000000 cycles: 29251190 heartbeat IPC: 2.07476 cumulative IPC: 2.0512 (Simulation time: 0 hr 6 min 48 sec) 
Heartbeat CPU 3 instructions: 50000000 cycles: 32679286 heartbeat IPC: 1.53117 cumulative IPC: 1.53002 (Simulation time: 0 hr 7 min 36 sec) 
Heartbeat CPU 2 instructions: 80000000 cycles: 32692683 heartbeat IPC: 2.50712 cumulative IPC: 2.44703 (Simulation time: 0 hr 7 min 36 sec) 
Heartbeat CPU 1 instructions: 40000000 cycles: 33554420 heartbeat IPC: 1.19255 cumulative IPC: 1.19209 (Simulation time: 0 hr 7 min 47 sec) 
Heartbeat CPU 0 instructions: 70000000 cycles: 34260251 heartbeat IPC: 1.99638 cumulative IPC: 2.04318 (Simulation time: 0 hr 7 min 57 sec) 
Heartbeat CPU 2 instructions: 90000000 cycles: 36687005 heartbeat IPC: 2.50355 cumulative IPC: 2.45318 (Simulation time: 0 hr 8 min 31 sec) 
Heartbeat CPU 0 instructions: 80000000 cycles: 39062497 heartbeat IPC: 2.08236 cumulative IPC: 2.048 (Simulation time: 0 hr 9 min 4 sec) 
Heartbeat CPU 3 instructions: 60000000 cycles: 39202817 heartbeat IPC: 1.53291 cumulative IPC: 1.5305 (Simulation time: 0 hr 9 min 6 sec) 
Heartbeat CPU 2 instructions: 100000000 cycles: 40673894 heartbeat IPC: 2.50822 cumulative IPC: 2.45858 (Simulation time: 0 hr 9 min 27 sec) 
Heartbeat CPU 1 instructions: 50000001 cycles: 41975345 heartbeat IPC: 1.18752 cumulative IPC: 1.19118 (Simulation time: 0 hr 9 min 45 sec) 
Heartbeat CPU 0 instructions: 90000001 cycles: 44023677 heartbeat IPC: 2.01565 cumulative IPC: 2.04435 (Simulation time: 0 hr 10 min 13 sec) 
Heartbeat CPU 2 instructions: 110000001 cycles: 44645264 heartbeat IPC: 2.51802 cumulative IPC: 2.46387 (Simulation time: 0 hr 10 min 22 sec) 
Heartbeat CPU 3 instructions: 70000000 cycles: 45741278 heartbeat IPC: 1.52941 cumulative IPC: 1.53035 (Simulation time: 0 hr 10 min 38 sec) 
Heartbeat CPU 2 instructions: 120000000 cycles: 48603956 heartbeat IPC: 2.52609 cumulative IPC: 2.46893 (Simulation time: 0 hr 11 min 17 sec) 
Heartbeat CPU 0 instructions: 100000000 cycles: 48984297 heartbeat IPC: 2.01588 cumulative IPC: 2.04147 (Simulation time: 0 hr 11 min 22 sec) 
Heartbeat CPU 1 instructions: 60000000 cycles: 50365022 heartbeat IPC: 1.19194 cumulative IPC: 1.1913 (Simulation time: 0 hr 11 min 42 sec) 
Heartbeat CPU 3 instructions: 80000000 cycles: 52252408 heartbeat IPC: 1.53583 cumulative IPC: 1.53103 (Simulation time: 0 hr 12 min 6 sec) 
Heartbeat CPU 2 instructions: 130000002 cycles: 52556764 heartbeat IPC: 2.52985 cumulative IPC: 2.47352 (Simulation time: 0 hr 12 min 10 sec) 
Heartbeat CPU 0 instructions: 110000000 cycles: 54041059 heartbeat IPC: 1.97755 cumulative IPC: 2.03549 (Simulation time: 0 hr 12 min 31 sec) 
Heartbeat CPU 2 instructions: 140000000 cycles: 56513241 heartbeat IPC: 2.5275 cumulative IPC: 2.4773 (Simulation time: 0 hr 13 min 4 sec) 
Heartbeat CPU 1 instructions: 70000003 cycles: 58737543 heartbeat IPC: 1.19438 cumulative IPC: 1.19174 (Simulation time: 0 hr 13 min 35 sec) 
Heartbeat CPU 3 instructions: 90000002 cycles: 58760025 heartbeat IPC: 1.53666 cumulative IPC: 1.53165 (Simulation time: 0 hr 13 min 35 sec) 
Heartbeat CPU 0 instructions: 120000000 cycles: 58861209 heartbeat IPC: 2.07462 cumulative IPC: 2.03869 (Simulation time: 0 hr 13 min 37 sec) 
Heartbeat CPU 2 instructions: 150000002 cycles: 60492018 heartbeat IPC: 2.51334 cumulative IPC: 2.47967 (Simulation time: 0 hr 13 min 59 sec) 
Heartbeat CPU 0 instructions: 130000003 cycles: 63722599 heartbeat IPC: 2.05703 cumulative IPC: 2.04009 (Simulation time: 0 hr 14 min 44 sec) 
Heartbeat CPU 2 instructions: 160000000 cycles: 64470913 heartbeat IPC: 2.51326 cumulative IPC: 2.48174 (Simulation time: 0 hr 14 min 54 sec) 
Heartbeat CPU 3 instructions: 100000000 cycles: 65257169 heartbeat IPC: 1.53914 cumulative IPC: 1.5324 (Simulation time: 0 hr 15 min 5 sec) 
Heartbeat CPU 1 instructions: 80000000 cycles: 67125848 heartbeat IPC: 1.19214 cumulative IPC: 1.19179 (Simulation time: 0 hr 15 min 32 sec) 
Heartbeat CPU 2 instructions: 170000003 cycles: 68467557 heartbeat IPC: 2.5021 cumulative IPC: 2.48293 (Simulation time: 0 hr 15 min 50 sec) 
Heartbeat CPU 0 instructions: 140000000 cycles: 68743938 heartbeat IPC: 1.9915 cumulative IPC: 2.03654 (Simulation time: 0 hr 15 min 54 sec) 
Heartbeat CPU 3 instructions: 110000000 cycles: 71746700 heartbeat IPC: 1.54094 cumulative IPC: 1.53317 (Simulation time: 0 hr 16 min 34 sec) 
Heartbeat CPU 2 instructions: 180000000 cycles: 72444188 heartbeat IPC: 2.51469 cumulative IPC: 2.48467 (Simulation time: 0 hr 16 min 44 sec) 
Heartbeat CPU 0 instructions: 150000000 cycles: 73701538 heartbeat IPC: 2.01711 cumulative IPC: 2.03524 (Simulation time: 0 hr 17 min 0 sec) 
Heartbeat CPU 1 instructions: 90000001 cycles: 75532227 heartbeat IPC: 1.18957 cumulative IPC: 1.19154 (Simulation time: 0 hr 17 min 25 sec) 
Heartbeat CPU 2 instructions: 190000002 cycles: 76437940 heartbeat IPC: 2.50391 cumulative IPC: 2.48568 (Simulation time: 0 hr 17 min 38 sec) 
Heartbeat CPU 3 instructions: 120000000 cycles: 78231425 heartbeat IPC: 1.54209 cumulative IPC: 1.53391 (Simulation time: 0 hr 18 min 3 sec) 
Heartbeat CPU 0 instructions: 160000000 cycles: 78597599 heartbeat IPC: 2.04246 cumulative IPC: 2.03569 (Simulation time: 0 hr 18 min 8 sec) 
Heartbeat CPU 2 instructions: 200000000 cycles: 80433766 heartbeat IPC: 2.50261 cumulative IPC: 2.48652 (Simulation time: 0 hr 18 min 34 sec) 
Heartbeat CPU 0 instructions: 170000000 cycles: 83380751 heartbeat IPC: 2.09067 cumulative IPC: 2.03884 (Simulation time: 0 hr 19 min 16 sec) 
Heartbeat CPU 1 instructions: 100000000 cycles: 83914603 heartbeat IPC: 1.19298 cumulative IPC: 1.19169 (Simulation time: 0 hr 19 min 24 sec) 
Heartbeat CPU 2 instructions: 210000003 cycles: 84412768 heartbeat IPC: 2.51319 cumulative IPC: 0.118466 (Simulation time: 0 hr 19 min 31 sec) 
Heartbeat CPU 3 instructions: 130000001 cycles: 84684736 heartbeat IPC: 1.54959 cumulative IPC: 1.53511 (Simulation time: 0 hr 19 min 34 sec) 
Heartbeat CPU 0 instructions: 180000000 cycles: 88285417 heartbeat IPC: 2.03887 cumulative IPC: 2.03884 (Simulation time: 0 hr 20 min 24 sec) 
Heartbeat CPU 2 instructions: 220000000 cycles: 88408462 heartbeat IPC: 2.50269 cumulative IPC: 0.226223 (Simulation time: 0 hr 20 min 26 sec) 
Heartbeat CPU 3 instructions: 140000000 cycles: 91120078 heartbeat IPC: 1.55392 cumulative IPC: 1.53643 (Simulation time: 0 hr 21 min 3 sec) 
Heartbeat CPU 1 instructions: 110000002 cycles: 92302302 heartbeat IPC: 1.19222 cumulative IPC: 1.19174 (Simulation time: 0 hr 21 min 19 sec) 
Heartbeat CPU 2 instructions: 230000000 cycles: 92392294 heartbeat IPC: 2.51015 cumulative IPC: 0.324702 (Simulation time: 0 hr 21 min 20 sec) 
Heartbeat CPU 0 instructions: 190000001 cycles: 93158903 heartbeat IPC: 2.05192 cumulative IPC: 2.03953 (Simulation time: 0 hr 21 min 31 sec) 
Heartbeat CPU 2 instructions: 240000000 cycles: 96384246 heartbeat IPC: 2.50504 cumulative IPC: 0.415006 (Simulation time: 0 hr 22 min 14 sec) 
Heartbeat CPU 3 instructions: 150000000 cycles: 97469290 heartbeat IPC: 1.575 cumulative IPC: 1.53895 (Simulation time: 0 hr 22 min 29 sec) 
Heartbeat CPU 0 instructions: 200000000 cycles: 98129760 heartbeat IPC: 2.01173 cumulative IPC: 2.03812 (Simulation time: 0 hr 22 min 38 sec) 
Heartbeat CPU 2 instructions: 250000003 cycles: 100374871 heartbeat IPC: 2.50587 cumulative IPC: 0.498133 (Simulation time: 0 hr 23 min 9 sec) 
Heartbeat CPU 1 instructions: 120000000 cycles: 100699086 heartbeat IPC: 1.19093 cumulative IPC: 1.19167 (Simulation time: 0 hr 23 min 13 sec) 
Heartbeat CPU 0 instructions: 210000000 cycles: 102999466 heartbeat IPC: 2.05351 cumulative IPC: 0.0970879 (Simulation time: 0 hr 23 min 45 sec) 
Heartbeat CPU 3 instructions: 160000000 cycles: 103748989 heartbeat IPC: 1.59243 cumulative IPC: 1.54218 (Simulation time: 0 hr 23 min 55 sec) 
Heartbeat CPU 2 instructions: 260000000 cycles: 104361436 heartbeat IPC: 2.50842 cumulative IPC: 0.574925 (Simulation time: 0 hr 24 min 4 sec) 
Heartbeat CPU 0 instructions: 220000000 cycles: 108048969 heartbeat IPC: 1.98039 cumulative IPC: 0.185101 (Simulation time: 0 hr 24 min 55 sec) 
Heartbeat CPU 2 instructions: 270000002 cycles: 108354757 heartbeat IPC: 2.50418 cumulative IPC: 0.646026 (Simulation time: 0 hr 25 min 0 sec) 
Heartbeat CPU 1 instructions: 130000001 cycles: 109105910 heartbeat IPC: 1.18951 cumulative IPC: 1.1915 (Simulation time: 0 hr 25 min 10 sec) 
Heartbeat CPU 3 instructions: 170000000 cycles: 110008268 heartbeat IPC: 1.59763 cumulative IPC: 1.54534 (Simulation time: 0 hr 25 min 23 sec) 
Heartbeat CPU 2 instructions: 280000000 cycles: 112344073 heartbeat IPC: 2.50669 cumulative IPC: 0.712098 (Simulation time: 0 hr 25 min 56 sec) 
Heartbeat CPU 0 instructions: 230000003 cycles: 113016259 heartbeat IPC: 2.01317 cumulative IPC: 0.265449 (Simulation time: 0 hr 26 min 5 sec) 
Heartbeat CPU 3 instructions: 180000000 cycles: 116164156 heartbeat IPC: 1.62446 cumulative IPC: 1.54953 (Simulation time: 0 hr 26 min 49 sec) 
Heartbeat CPU 2 instructions: 290000001 cycles: 116327741 heartbeat IPC: 2.51025 cumulative IPC: 0.773676 (Simulation time: 0 hr 26 min 51 sec) 
Heartbeat CPU 1 instructions: 140000000 cycles: 117488118 heartbeat IPC: 1.193 cumulative IPC: 1.19161 (Simulation time: 0 hr 27 min 8 sec) 
Heartbeat CPU 0 instructions: 240000000 cycles: 118003812 heartbeat IPC: 2.00499 cumulative IPC: 0.338972 (Simulation time: 0 hr 27 min 15 sec) 
Heartbeat CPU 2 instructions: 300000000 cycles: 120320719 heartbeat IPC: 2.5044 cumulative IPC: 0.831112 (Simulation time: 0 hr 27 min 48 sec) 
Heartbeat CPU 3 instructions: 190000001 cycles: 122363742 heartbeat IPC: 1.61301 cumulative IPC: 1.55275 (Simulation time: 0 hr 28 min 18 sec) 
Heartbeat CPU 0 instructions: 250000001 cycles: 122933297 heartbeat IPC: 2.02861 cumulative IPC: 0.406725 (Simulation time: 0 hr 28 min 25 sec) 
Heartbeat CPU 2 instructions: 310000001 cycles: 124305536 heartbeat IPC: 2.50953 cumulative IPC: 0.884916 (Simulation time: 0 hr 28 min 44 sec) 
Heartbeat CPU 1 instructions: 150000002 cycles: 125861202 heartbeat IPC: 1.1943 cumulative IPC: 1.19179 (Simulation time: 0 hr 29 min 4 sec) 
Heartbeat CPU 0 instructions: 260000000 cycles: 127902037 heartbeat IPC: 2.01258 cumulative IPC: 0.469109 (Simulation time: 0 hr 29 min 32 sec) 
Heartbeat CPU 2 instructions: 320000000 cycles: 128297843 heartbeat IPC: 2.50482 cumulative IPC: 0.935324 (Simulation time: 0 hr 29 min 38 sec) 
Heartbeat CPU 3 instructions: 200000000 cycles: 128579591 heartbeat IPC: 1.60879 cumulative IPC: 1.55546 (Simulation time: 0 hr 29 min 42 sec) 
Heartbeat CPU 2 instructions: 330000003 cycles: 132278725 heartbeat IPC: 2.51201 cumulative IPC: 0.982773 (Simulation time: 0 hr 30 min 33 sec) 
Heartbeat CPU 0 instructions: 270000000 cycles: 132938070 heartbeat IPC: 1.98569 cumulative IPC: 0.526561 (Simulation time: 0 hr 30 min 42 sec) 
Heartbeat CPU 1 instructions: 160000000 cycles: 134259509 heartbeat IPC: 1.19072 cumulative IPC: 1.19172 (Simulation time: 0 hr 31 min 0 sec) 
Heartbeat CPU 3 instructions: 210000002 cycles: 134811889 heartbeat IPC: 1.60454 cumulative IPC: 0.0741775 (Simulation time: 0 hr 31 min 8 sec) 
Heartbeat CPU 2 instructions: 340000000 cycles: 136254564 heartbeat IPC: 2.51519 cumulative IPC: 1.02749 (Simulation time: 0 hr 31 min 27 sec) 
Heartbeat CPU 0 instructions: 280000000 cycles: 137821756 heartbeat IPC: 2.04763 cumulative IPC: 0.58046 (Simulation time: 0 hr 31 min 48 sec) 
Heartbeat CPU 2 instructions: 350000000 cycles: 140212027 heartbeat IPC: 2.52687 cumulative IPC: 1.06981 (Simulation time: 0 hr 32 min 21 sec) 
Heartbeat CPU 3 instructions: 220000000 cycles: 141043216 heartbeat IPC: 1.60479 cumulative IPC: 0.141801 (Simulation time: 0 hr 32 min 33 sec) 
Heartbeat CPU 1 instructions: 170000000 cycles: 142667038 heartbeat IPC: 1.18941 cumulative IPC: 1.19159 (Simulation time: 0 hr 32 min 56 sec) 
Heartbeat CPU 0 instructions: 290000000 cycles: 142670393 heartbeat IPC: 2.06244 cumulative IPC: 0.630825 (Simulation time: 0 hr 32 min 56 sec) 
Heartbeat CPU 2 instructions: 360000000 cycles: 144164440 heartbeat IPC: 2.5301 cumulative IPC: 1.10984 (Simulation time: 0 hr 33 min 17 sec) 
Heartbeat CPU 3 instructions: 230000001 cycles: 147320949 heartbeat IPC: 1.59293 cumulative IPC: 0.203637 (Simulation time: 0 hr 34 min 1 sec) 
Heartbeat CPU 0 instructions: 300000000 cycles: 147717977 heartbeat IPC: 1.98115 cumulative IPC: 0.676966 (Simulation time: 0 hr 34 min 7 sec) 
Heartbeat CPU 2 instructions: 370000002 cycles: 148122074 heartbeat IPC: 2.52676 cumulative IPC: 1.1477 (Simulation time: 0 hr 34 min 13 sec) 
Heartbeat CPU 1 instructions: 180000000 cycles: 151047936 heartbeat IPC: 1.19319 cumulative IPC: 1.19167 (Simulation time: 0 hr 34 min 54 sec) 
Heartbeat CPU 2 instructions: 380000000 cycles: 152091124 heartbeat IPC: 2.51949 cumulative IPC: 1.1835 (Simulation time: 0 hr 35 min 8 sec) 
Heartbeat CPU 0 instructions: 310000003 cycles: 152610170 heartbeat IPC: 2.04407 cumulative IPC: 0.720791 (Simulation time: 0 hr 35 min 16 sec) 
Heartbeat CPU 3 instructions: 240000000 cycles: 153641023 heartbeat IPC: 1.58226 cumulative IPC: 0.260347 (Simulation time: 0 hr 35 min 30 sec) 
Heartbeat CPU 2 instructions: 390000003 cycles: 156086444 heartbeat IPC: 2.50293 cumulative IPC: 1.21727 (Simulation time: 0 hr 36 min 6 sec) 
Heartbeat CPU 0 instructions: 320000000 cycles: 157549093 heartbeat IPC: 2.02473 cumulative IPC: 0.761667 (Simulation time: 0 hr 36 min 27 sec) 
Heartbeat CPU 1 instructions: 190000001 cycles: 159435714 heartbeat IPC: 1.19221 cumulative IPC: 1.1917 (Simulation time: 0 hr 36 min 54 sec) 
Heartbeat CPU 3 instructions: 250000000 cycles: 160002458 heartbeat IPC: 1.57197 cumulative IPC: 0.312495 (Simulation time: 0 hr 37 min 2 sec) 
Heartbeat CPU 2 instructions: 400000000 cycles: 160072390 heartbeat IPC: 2.50881 cumulative IPC: 1.24943 (Simulation time: 0 hr 37 min 3 sec) 
Heartbeat CPU 0 instructions: 330000003 cycles: 162362427 heartbeat IPC: 2.07756 cumulative IPC: 0.800678 (Simulation time: 0 hr 37 min 35 sec) 
Heartbeat CPU 2 instructions: 410000000 cycles: 164063910 heartbeat IPC: 2.50531 cumulative IPC: 1.27999 (Simulation time: 0 hr 37 min 59 sec) 
Heartbeat CPU 3 instructions: 260000000 cycles: 166373314 heartbeat IPC: 1.56965 cumulative IPC: 0.360635 (Simulation time: 0 hr 38 min 30 sec) 
Heartbeat CPU 0 instructions: 340000000 cycles: 167417711 heartbeat IPC: 1.97813 cumulative IPC: 0.836232 (Simulation time: 0 hr 38 min 45 sec) 
Heartbeat CPU 1 instructions: 200000000 cycles: 167831408 heartbeat IPC: 1.19109 cumulative IPC: 1.19167 (Simulation time: 0 hr 38 min 50 sec) 

Warmup complete CPU 0 instructions: 340662330 cycles: 167831427 (Simulation time: 0 hr 38 min 50 sec) 
Warmup complete CPU 1 instructions: 200000001 cycles: 167831427 (Simulation time: 0 hr 38 min 50 sec) 
Warmup complete CPU 2 instructions: 419452859 cycles: 167831426 (Simulation time: 0 hr 38 min 50 sec) 
Warmup complete CPU 3 instructions: 262277086 cycles: 167831426 (Simulation time: 0 hr 38 min 50 sec) 

Heartbeat CPU 2 instructions: 420000000 cycles: 168316978 heartbeat IPC: 2.35124 cumulative IPC: 1.12684 (Simulation time: 0 hr 38 min 53 sec) 
Heartbeat CPU 2 instructions: 430000002 cycles: 177149751 heartbeat IPC: 1.13215 cumulative IPC: 1.13187 (Simulation time: 0 hr 39 min 49 sec) 
Heartbeat CPU 2 instructions: 440000000 cycles: 185706976 heartbeat IPC: 1.1686 cumulative IPC: 1.14946 (Simulation time: 0 hr 40 min 43 sec) 
Heartbeat CPU 1 instructions: 210000002 cycles: 186559185 heartbeat IPC: 0.533966 cumulative IPC: 0.533967 (Simulation time: 0 hr 40 min 49 sec) 
Heartbeat CPU 2 instructions: 450000001 cycles: 194238367 heartbeat IPC: 1.17214 cumulative IPC: 1.15678 (Simulation time: 0 hr 41 min 37 sec) 
Heartbeat CPU 3 instructions: 270000000 cycles: 195871071 heartbeat IPC: 0.339009 cumulative IPC: 0.275428 (Simulation time: 0 hr 41 min 48 sec) 
Heartbeat CPU 2 instructions: 460000000 cycles: 202778425 heartbeat IPC: 1.17095 cumulative IPC: 1.16025 (Simulation time: 0 hr 42 min 30 sec) 
Heartbeat CPU 1 instructions: 220000000 cycles: 205420378 heartbeat IPC: 0.530189 cumulative IPC: 0.532071 (Simulation time: 0 hr 42 min 46 sec) 
Heartbeat CPU 0 instructions: 350000002 cycles: 208229660 heartbeat IPC: 0.245026 cumulative IPC: 0.231141 (Simulation time: 0 hr 43 min 4 sec) 
Heartbeat CPU 2 instructions: 470000000 cycles: 213407854 heartbeat IPC: 0.940784 cumulative IPC: 1.10906 (Simulation time: 0 hr 43 min 40 sec) 
Heartbeat CPU 2 instructions: 480000000 cycles: 222751566 heartbeat IPC: 1.07024 cumulative IPC: 1.10246 (Simulation time: 0 hr 44 min 39 sec) 
Heartbeat CPU 1 instructions: 230000002 cycles: 224683791 heartbeat IPC: 0.519119 cumulative IPC: 0.527683 (Simulation time: 0 hr 44 min 52 sec) 
Heartbeat CPU 2 instructions: 490000000 cycles: 231590460 heartbeat IPC: 1.13136 cumulative IPC: 1.10646 (Simulation time: 0 hr 45 min 34 sec) 
Heartbeat CPU 3 instructions: 280000000 cycles: 232917704 heartbeat IPC: 0.26993 cumulative IPC: 0.272299 (Simulation time: 0 hr 45 min 43 sec) 
Heartbeat CPU 2 instructions: 500000000 cycles: 240472740 heartbeat IPC: 1.12584 cumulative IPC: 1.10883 (Simulation time: 0 hr 46 min 30 sec) 
Heartbeat CPU 1 instructions: 240000000 cycles: 243631210 heartbeat IPC: 0.527776 cumulative IPC: 0.527706 (Simulation time: 0 hr 46 min 50 sec) 
Heartbeat CPU 0 instructions: 360000000 cycles: 245641078 heartbeat IPC: 0.267298 cumulative IPC: 0.248525 (Simulation time: 0 hr 47 min 3 sec) 
Heartbeat CPU 2 instructions: 510000003 cycles: 249436132 heartbeat IPC: 1.11565 cumulative IPC: 1.10958 (Simulation time: 0 hr 47 min 26 sec) 
Heartbeat CPU 2 instructions: 520000000 cycles: 258393861 heartbeat IPC: 1.11635 cumulative IPC: 1.11025 (Simulation time: 0 hr 48 min 22 sec) 
Heartbeat CPU 1 instructions: 250000001 cycles: 262447073 heartbeat IPC: 0.531466 cumulative IPC: 0.528454 (Simulation time: 0 hr 48 min 48 sec) 
Heartbeat CPU 2 instructions: 530000001 cycles: 267945976 heartbeat IPC: 1.04689 cumulative IPC: 1.10421 (Simulation time: 0 hr 49 min 21 sec) 
Heartbeat CPU 3 instructions: 290000000 cycles: 269319330 heartbeat IPC: 0.274713 cumulative IPC: 0.273165 (Simulation time: 0 hr 49 min 29 sec) 
Heartbeat CPU 2 instructions: 540000000 cycles: 277596103 heartbeat IPC: 1.03626 cumulative IPC: 1.09823 (Simulation time: 0 hr 50 min 21 sec) 
Heartbeat CPU 1 instructions: 260000000 cycles: 281306503 heartbeat IPC: 0.530239 cumulative IPC: 0.52875 (Simulation time: 0 hr 50 min 45 sec) 
Heartbeat CPU 0 instructions: 370000002 cycles: 285727719 heartbeat IPC: 0.24946 cumulative IPC: 0.248843 (Simulation time: 0 hr 51 min 12 sec) 
Heartbeat CPU 2 instructions: 550000000 cycles: 287227184 heartbeat IPC: 1.03831 cumulative IPC: 1.0934 (Simulation time: 0 hr 51 min 21 sec) 
Heartbeat CPU 2 instructions: 560000000 cycles: 296837430 heartbeat IPC: 1.04056 cumulative IPC: 1.08946 (Simulation time: 0 hr 52 min 21 sec) 
Heartbeat CPU 1 instructions: 270000001 cycles: 300239519 heartbeat IPC: 0.528178 cumulative IPC: 0.528669 (Simulation time: 0 hr 52 min 43 sec) 
Heartbeat CPU 3 instructions: 300000000 cycles: 305392608 heartbeat IPC: 0.277214 cumulative IPC: 0.274226 (Simulation time: 0 hr 53 min 15 sec) 
Heartbeat CPU 2 instructions: 570000002 cycles: 306478392 heartbeat IPC: 1.03724 cumulative IPC: 1.08583 (Simulation time: 0 hr 53 min 21 sec) 
Heartbeat CPU 2 instructions: 580000000 cycles: 316089977 heartbeat IPC: 1.04041 cumulative IPC: 1.08289 (Simulation time: 0 hr 54 min 16 sec) 
Heartbeat CPU 2 instructions: 590000000 cycles: 325776312 heartbeat IPC: 1.03238 cumulative IPC: 1.07979 (Simulation time: 0 hr 55 min 6 sec) 
Heartbeat CPU 0 instructions: 380000000 cycles: 325876880 heartbeat IPC: 0.249071 cumulative IPC: 0.248901 (Simulation time: 0 hr 55 min 6 sec) 
Heartbeat CPU 2 instructions: 600000000 cycles: 335464839 heartbeat IPC: 1.03215 cumulative IPC: 1.07704 (Simulation time: 0 hr 55 min 54 sec) 
Heartbeat CPU 3 instructions: 310000003 cycles: 343186051 heartbeat IPC: 0.264596 cumulative IPC: 0.272151 (Simulation time: 0 hr 56 min 31 sec) 
Heartbeat CPU 2 instructions: 610000003 cycles: 345154459 heartbeat IPC: 1.03203 cumulative IPC: 1.07458 (Simulation time: 0 hr 56 min 41 sec) 
Heartbeat CPU 1 instructions: 280000000 cycles: 346453941 heartbeat IPC: 0.216383 cumulative IPC: 0.447872 (Simulation time: 0 hr 56 min 47 sec) 
Heartbeat CPU 2 instructions: 620000000 cycles: 354847325 heartbeat IPC: 1.03169 cumulative IPC: 1.07235 (Simulation time: 0 hr 57 min 30 sec) 
Heartbeat CPU 2 instructions: 630000002 cycles: 364533749 heartbeat IPC: 1.03237 cumulative IPC: 1.07038 (Simulation time: 0 hr 58 min 16 sec) 
Heartbeat CPU 0 instructions: 390000000 cycles: 369274324 heartbeat IPC: 0.230428 cumulative IPC: 0.244921 (Simulation time: 0 hr 58 min 38 sec) 
Heartbeat CPU 2 instructions: 640000000 cycles: 374120876 heartbeat IPC: 1.04307 cumulative IPC: 1.06911 (Simulation time: 0 hr 59 min 2 sec) 
Heartbeat CPU 3 instructions: 320000000 cycles: 381191839 heartbeat IPC: 0.263118 cumulative IPC: 0.270542 (Simulation time: 0 hr 59 min 37 sec) 
Heartbeat CPU 2 instructions: 650000000 cycles: 383071134 heartbeat IPC: 1.11729 cumulative IPC: 1.07112 (Simulation time: 0 hr 59 min 46 sec) 
Heartbeat CPU 2 instructions: 660000000 cycles: 391941567 heartbeat IPC: 1.12734 cumulative IPC: 1.07334 (Simulation time: 1 hr 0 min 30 sec) 
Heartbeat CPU 1 instructions: 290000000 cycles: 400004386 heartbeat IPC: 0.18674 cumulative IPC: 0.387642 (Simulation time: 1 hr 1 min 21 sec) 
Heartbeat CPU 2 instructions: 670000000 cycles: 401153881 heartbeat IPC: 1.0855 cumulative IPC: 1.07382 (Simulation time: 1 hr 1 min 27 sec) 
Heartbeat CPU 2 instructions: 680000000 cycles: 409991236 heartbeat IPC: 1.13156 cumulative IPC: 1.07593 (Simulation time: 1 hr 2 min 22 sec) 
Heartbeat CPU 0 instructions: 400000000 cycles: 412265619 heartbeat IPC: 0.232605 cumulative IPC: 0.242755 (Simulation time: 1 hr 2 min 36 sec) 
Heartbeat CPU 3 instructions: 330000002 cycles: 417776267 heartbeat IPC: 0.27334 cumulative IPC: 0.270951 (Simulation time: 1 hr 3 min 11 sec) 
Heartbeat CPU 2 instructions: 690000000 cycles: 418788578 heartbeat IPC: 1.13671 cumulative IPC: 1.07806 (Simulation time: 1 hr 3 min 18 sec) 
Heartbeat CPU 1 instructions: 300000000 cycles: 418790638 heartbeat IPC: 0.532304 cumulative IPC: 0.398471 (Simulation time: 1 hr 3 min 18 sec) 
Heartbeat CPU 2 instructions: 700000000 cycles: 427581348 heartbeat IPC: 1.1373 cumulative IPC: 1.08007 (Simulation time: 1 hr 4 min 13 sec) 
Heartbeat CPU 2 instructions: 710000002 cycles: 436376191 heartbeat IPC: 1.13703 cumulative IPC: 1.08193 (Simulation time: 1 hr 5 min 7 sec) 
Heartbeat CPU 1 instructions: 310000002 cycles: 437824709 heartbeat IPC: 0.525374 cumulative IPC: 0.407418 (Simulation time: 1 hr 5 min 16 sec) 
Heartbeat CPU 2 instructions: 720000000 cycles: 445246303 heartbeat IPC: 1.12738 cumulative IPC: 1.08339 (Simulation time: 1 hr 6 min 4 sec) 
Heartbeat CPU 0 instructions: 410000001 cycles: 452809080 heartbeat IPC: 0.246649 cumulative IPC: 0.243309 (Simulation time: 1 hr 6 min 52 sec) 
Heartbeat CPU 3 instructions: 340000000 cycles: 454727144 heartbeat IPC: 0.27063 cumulative IPC: 0.27091 (Simulation time: 1 hr 7 min 4 sec) 
Heartbeat CPU 2 instructions: 730000003 cycles: 456192918 heartbeat IPC: 0.913525 cumulative IPC: 1.07694 (Simulation time: 1 hr 7 min 13 sec) 
Heartbeat CPU 1 instructions: 320000000 cycles: 457327359 heartbeat IPC: 0.512751 cumulative IPC: 0.414514 (Simulation time: 1 hr 7 min 20 sec) 
Heartbeat CPU 2 instructions: 740000000 cycles: 465187308 heartbeat IPC: 1.1118 cumulative IPC: 1.07799 (Simulation time: 1 hr 8 min 9 sec) 
Heartbeat CPU 2 instructions: 750000001 cycles: 473941212 heartbeat IPC: 1.14235 cumulative IPC: 1.07983 (Simulation time: 1 hr 9 min 2 sec) 
Heartbeat CPU 1 instructions: 330000000 cycles: 476161180 heartbeat IPC: 0.53096 cumulative IPC: 0.421627 (Simulation time: 1 hr 9 min 15 sec) 
Heartbeat CPU 2 instructions: 760000000 cycles: 482709997 heartbeat IPC: 1.14041 cumulative IPC: 1.08152 (Simulation time: 1 hr 9 min 56 sec) 
Heartbeat CPU 2 instructions: 770000003 cycles: 491464888 heartbeat IPC: 1.14222 cumulative IPC: 1.08316 (Simulation time: 1 hr 10 min 50 sec) 
Heartbeat CPU 3 instructions: 350000001 cycles: 491675180 heartbeat IPC: 0.27065 cumulative IPC: 0.27088 (Simulation time: 1 hr 10 min 51 sec) 
Heartbeat CPU 1 instructions: 340000000 cycles: 495222735 heartbeat IPC: 0.524616 cumulative IPC: 0.427623 (Simulation time: 1 hr 11 min 13 sec) 
Heartbeat CPU 0 instructions: 420000000 cycles: 495728643 heartbeat IPC: 0.232994 cumulative IPC: 0.241959 (Simulation time: 1 hr 11 min 17 sec) 
Heartbeat CPU 2 instructions: 780000000 cycles: 500278679 heartbeat IPC: 1.13459 cumulative IPC: 1.08452 (Simulation time: 1 hr 11 min 45 sec) 
Heartbeat CPU 2 instructions: 790000001 cycles: 509157920 heartbeat IPC: 1.12622 cumulative IPC: 1.08561 (Simulation time: 1 hr 12 min 39 sec) 
Heartbeat CPU 1 instructions: 350000003 cycles: 514378465 heartbeat IPC: 0.522037 cumulative IPC: 0.432842 (Simulation time: 1 hr 13 min 11 sec) 
Heartbeat CPU 2 instructions: 800000000 cycles: 518194167 heartbeat IPC: 1.10665 cumulative IPC: 1.08615 (Simulation time: 1 hr 13 min 34 sec) 
Heartbeat CPU 2 instructions: 810000000 cycles: 527455798 heartbeat IPC: 1.07972 cumulative IPC: 1.08599 (Simulation time: 1 hr 14 min 31 sec) 
Heartbeat CPU 3 instructions: 360000000 cycles: 527992052 heartbeat IPC: 0.275354 cumulative IPC: 0.271331 (Simulation time: 1 hr 14 min 34 sec) 
Heartbeat CPU 1 instructions: 360000000 cycles: 533098401 heartbeat IPC: 0.53419 cumulative IPC: 0.438036 (Simulation time: 1 hr 15 min 6 sec) 
Heartbeat CPU 2 instructions: 820000000 cycles: 536778861 heartbeat IPC: 1.07261 cumulative IPC: 1.08565 (Simulation time: 1 hr 15 min 29 sec) 
Heartbeat CPU 0 instructions: 430000002 cycles: 538052485 heartbeat IPC: 0.236273 cumulative IPC: 0.241309 (Simulation time: 1 hr 15 min 36 sec) 
Heartbeat CPU 2 instructions: 830000003 cycles: 545818610 heartbeat IPC: 1.10623 cumulative IPC: 1.08614 (Simulation time: 1 hr 16 min 25 sec) 
Heartbeat CPU 1 instructions: 370000000 cycles: 552441064 heartbeat IPC: 0.516992 cumulative IPC: 0.442007 (Simulation time: 1 hr 17 min 5 sec) 
Heartbeat CPU 2 instructions: 840000000 cycles: 554869549 heartbeat IPC: 1.10486 cumulative IPC: 1.08658 (Simulation time: 1 hr 17 min 20 sec) 
Heartbeat CPU 2 instructions: 850000000 cycles: 563910517 heartbeat IPC: 1.10608 cumulative IPC: 1.08702 (Simulation time: 1 hr 18 min 17 sec) 
Heartbeat CPU 3 instructions: 370000001 cycles: 564651423 heartbeat IPC: 0.272782 cumulative IPC: 0.271465 (Simulation time: 1 hr 18 min 21 sec) 
Heartbeat CPU 1 instructions: 380000000 cycles: 571444736 heartbeat IPC: 0.526214 cumulative IPC: 0.445971 (Simulation time: 1 hr 19 min 3 sec) 
Heartbeat CPU 2 instructions: 860000000 cycles: 572956733 heartbeat IPC: 1.10543 cumulative IPC: 1.08743 (Simulation time: 1 hr 19 min 12 sec) 
Heartbeat CPU 0 instructions: 440000000 cycles: 576707040 heartbeat IPC: 0.258702 cumulative IPC: 0.242953 (Simulation time: 1 hr 19 min 37 sec) 
Heartbeat CPU 2 instructions: 870000002 cycles: 581997481 heartbeat IPC: 1.1061 cumulative IPC: 1.08784 (Simulation time: 1 hr 20 min 9 sec) 
Heartbeat CPU 1 instructions: 390000001 cycles: 590647068 heartbeat IPC: 0.52077 cumulative IPC: 0.449368 (Simulation time: 1 hr 21 min 1 sec) 
Heartbeat CPU 2 instructions: 880000000 cycles: 591033754 heartbeat IPC: 1.10665 cumulative IPC: 1.08824 (Simulation time: 1 hr 21 min 3 sec) 
Heartbeat CPU 2 instructions: 890000000 cycles: 600088796 heartbeat IPC: 1.10436 cumulative IPC: 1.08858 (Simulation time: 1 hr 21 min 59 sec) 
Heartbeat CPU 3 instructions: 380000000 cycles: 601791316 heartbeat IPC: 0.269252 cumulative IPC: 0.271276 (Simulation time: 1 hr 22 min 10 sec) 
Heartbeat CPU 2 instructions: 900000000 cycles: 609135138 heartbeat IPC: 1.10542 cumulative IPC: 1.08893 (Simulation time: 1 hr 22 min 54 sec) 
Heartbeat CPU 1 instructions: 400000000 cycles: 609943109 heartbeat IPC: 0.518241 cumulative IPC: 0.452374 (Simulation time: 1 hr 22 min 59 sec) 
Heartbeat CPU 2 instructions: 910000001 cycles: 618179972 heartbeat IPC: 1.1056 cumulative IPC: 1.08926 (Simulation time: 1 hr 23 min 49 sec) 
Heartbeat CPU 0 instructions: 450000002 cycles: 622038069 heartbeat IPC: 0.220599 cumulative IPC: 0.240722 (Simulation time: 1 hr 24 min 13 sec) 
Heartbeat CPU 2 instructions: 920000000 cycles: 627220604 heartbeat IPC: 1.10612 cumulative IPC: 1.08959 (Simulation time: 1 hr 24 min 45 sec) 
Heartbeat CPU 1 instructions: 410000000 cycles: 629203253 heartbeat IPC: 0.519207 cumulative IPC: 0.455164 (Simulation time: 1 hr 24 min 57 sec) 
Heartbeat CPU 2 instructions: 930000003 cycles: 636702290 heartbeat IPC: 1.05467 cumulative IPC: 1.08889 (Simulation time: 1 hr 25 min 44 sec) 
Heartbeat CPU 3 instructions: 390000001 cycles: 639181913 heartbeat IPC: 0.267447 cumulative IPC: 0.270972 (Simulation time: 1 hr 25 min 59 sec) 
Heartbeat CPU 2 instructions: 940000000 cycles: 645734585 heartbeat IPC: 1.10714 cumulative IPC: 1.08923 (Simulation time: 1 hr 26 min 38 sec) 
Heartbeat CPU 1 instructions: 420000000 cycles: 648476935 heartbeat IPC: 0.518842 cumulative IPC: 0.457718 (Simulation time: 1 hr 26 min 55 sec) 
Heartbeat CPU 2 instructions: 950000002 cycles: 654839978 heartbeat IPC: 1.09825 cumulative IPC: 1.0894 (Simulation time: 1 hr 27 min 35 sec) 
Heartbeat CPU 0 instructions: 460000000 cycles: 663578724 heartbeat IPC: 0.240728 cumulative IPC: 0.240723 (Simulation time: 1 hr 28 min 28 sec) 
Heartbeat CPU 2 instructions: 960000000 cycles: 663899584 heartbeat IPC: 1.1038 cumulative IPC: 1.08966 (Simulation time: 1 hr 28 min 30 sec) 
Heartbeat CPU 1 instructions: 430000003 cycles: 667631102 heartbeat IPC: 0.52208 cumulative IPC: 0.460184 (Simulation time: 1 hr 28 min 53 sec) 
Heartbeat CPU 2 instructions: 970000001 cycles: 672697989 heartbeat IPC: 1.13657 cumulative IPC: 1.09048 (Simulation time: 1 hr 29 min 24 sec) 
Heartbeat CPU 3 instructions: 400000000 cycles: 677443397 heartbeat IPC: 0.261359 cumulative IPC: 0.270251 (Simulation time: 1 hr 29 min 52 sec) 
Heartbeat CPU 2 instructions: 980000000 cycles: 681472357 heartbeat IPC: 1.13968 cumulative IPC: 1.09132 (Simulation time: 1 hr 30 min 17 sec) 
Heartbeat CPU 1 instructions: 440000000 cycles: 687003528 heartbeat IPC: 0.516197 cumulative IPC: 0.462274 (Simulation time: 1 hr 30 min 51 sec) 
Heartbeat CPU 2 instructions: 990000003 cycles: 690236650 heartbeat IPC: 1.14099 cumulative IPC: 1.09215 (Simulation time: 1 hr 31 min 11 sec) 
Heartbeat CPU 2 instructions: 1000000000 cycles: 699000728 heartbeat IPC: 1.14102 cumulative IPC: 1.09296 (Simulation time: 1 hr 32 min 2 sec) 
Heartbeat CPU 0 instructions: 470000000 cycles: 705805867 heartbeat IPC: 0.236814 cumulative IPC: 0.240416 (Simulation time: 1 hr 32 min 43 sec) 
Heartbeat CPU 1 instructions: 450000002 cycles: 706079014 heartbeat IPC: 0.524233 cumulative IPC: 0.46447 (Simulation time: 1 hr 32 min 45 sec) 
Heartbeat CPU 2 instructions: 1010000001 cycles: 708440666 heartbeat IPC: 1.05933 cumulative IPC: 1.09237 (Simulation time: 1 hr 33 min 2 sec) 
Heartbeat CPU 2 instructions: 1020000000 cycles: 718799398 heartbeat IPC: 0.965369 cumulative IPC: 1.08999 (Simulation time: 1 hr 34 min 7 sec) 
Heartbeat CPU 3 instructions: 410000003 cycles: 721156325 heartbeat IPC: 0.228765 cumulative IPC: 0.266973 (Simulation time: 1 hr 34 min 21 sec) 
Heartbeat CPU 1 instructions: 460000000 cycles: 725493107 heartbeat IPC: 0.51509 cumulative IPC: 0.466233 (Simulation time: 1 hr 34 min 49 sec) 
Heartbeat CPU 2 instructions: 1030000001 cycles: 727346607 heartbeat IPC: 1.16997 cumulative IPC: 1.09121 (Simulation time: 1 hr 35 min 1 sec) 
Heartbeat CPU 2 instructions: 1040000000 cycles: 735875339 heartbeat IPC: 1.17251 cumulative IPC: 1.09243 (Simulation time: 1 hr 35 min 54 sec) 
Heartbeat CPU 2 instructions: 1050000000 cycles: 744415738 heartbeat IPC: 1.17091 cumulative IPC: 1.09359 (Simulation time: 1 hr 36 min 47 sec) 
Heartbeat CPU 1 instructions: 470000003 cycles: 744737047 heartbeat IPC: 0.519644 cumulative IPC: 0.468014 (Simulation time: 1 hr 36 min 49 sec) 
Heartbeat CPU 0 instructions: 480000000 cycles: 745807708 heartbeat IPC: 0.249988 cumulative IPC: 0.241079 (Simulation time: 1 hr 36 min 56 sec) 
Heartbeat CPU 2 instructions: 1060000000 cycles: 753247143 heartbeat IPC: 1.13232 cumulative IPC: 1.09417 (Simulation time: 1 hr 37 min 41 sec) 
Heartbeat CPU 3 instructions: 420000000 cycles: 757783163 heartbeat IPC: 0.273024 cumulative IPC: 0.267349 (Simulation time: 1 hr 38 min 9 sec) 
Heartbeat CPU 2 instructions: 1070000002 cycles: 762299072 heartbeat IPC: 1.10474 cumulative IPC: 1.09434 (Simulation time: 1 hr 38 min 37 sec) 
Heartbeat CPU 1 instructions: 480000000 cycles: 763955627 heartbeat IPC: 0.52033 cumulative IPC: 0.469701 (Simulation time: 1 hr 38 min 48 sec) 
Heartbeat CPU 2 instructions: 1080000000 cycles: 771613363 heartbeat IPC: 1.07362 cumulative IPC: 1.09402 (Simulation time: 1 hr 39 min 35 sec) 
Heartbeat CPU 2 instructions: 1090000001 cycles: 781085129 heartbeat IPC: 1.05577 cumulative IPC: 1.09343 (Simulation time: 1 hr 40 min 34 sec) 
Heartbeat CPU 1 instructions: 490000000 cycles: 783120011 heartbeat IPC: 0.521801 cumulative IPC: 0.471324 (Simulation time: 1 hr 40 min 46 sec) 
Heartbeat CPU 2 instructions: 1100000000 cycles: 790294337 heartbeat IPC: 1.08587 cumulative IPC: 1.09331 (Simulation time: 1 hr 41 min 31 sec) 
Heartbeat CPU 0 instructions: 490000000 cycles: 790754599 heartbeat IPC: 0.222485 cumulative IPC: 0.239737 (Simulation time: 1 hr 41 min 34 sec) 
Heartbeat CPU 3 instructions: 430000001 cycles: 795361902 heartbeat IPC: 0.266108 cumulative IPC: 0.267275 (Simulation time: 1 hr 42 min 2 sec) 
Heartbeat CPU 2 instructions: 1110000000 cycles: 799332224 heartbeat IPC: 1.10645 cumulative IPC: 1.0935 (Simulation time: 1 hr 42 min 26 sec) 
Heartbeat CPU 1 instructions: 500000000 cycles: 802231670 heartbeat IPC: 0.523241 cumulative IPC: 0.472888 (Simulation time: 1 hr 42 min 44 sec) 
Heartbeat CPU 2 instructions: 1120000000 cycles: 808282813 heartbeat IPC: 1.11724 cumulative IPC: 1.09383 (Simulation time: 1 hr 43 min 22 sec) 
Heartbeat CPU 2 instructions: 1130000002 cycles: 817625184 heartbeat IPC: 1.07039 cumulative IPC: 1.0935 (Simulation time: 1 hr 44 min 19 sec) 
Heartbeat CPU 1 instructions: 510000000 cycles: 821054101 heartbeat IPC: 0.531281 cumulative IPC: 0.47457 (Simulation time: 1 hr 44 min 41 sec) 
Heartbeat CPU 2 instructions: 1140000000 cycles: 826626521 heartbeat IPC: 1.11095 cumulative IPC: 1.09373 (Simulation time: 1 hr 45 min 14 sec) 
Heartbeat CPU 3 instructions: 440000000 cycles: 832766079 heartbeat IPC: 0.26735 cumulative IPC: 0.267279 (Simulation time: 1 hr 45 min 52 sec) 
Heartbeat CPU 0 instructions: 500000000 cycles: 834082930 heartbeat IPC: 0.230796 cumulative IPC: 0.239155 (Simulation time: 1 hr 46 min 0 sec) 
Heartbeat CPU 2 instructions: 1150000000 cycles: 835615445 heartbeat IPC: 1.11248 cumulative IPC: 1.09399 (Simulation time: 1 hr 46 min 10 sec) 
Heartbeat CPU 1 instructions: 520000000 cycles: 840248753 heartbeat IPC: 0.520978 cumulative IPC: 0.475895 (Simulation time: 1 hr 46 min 39 sec) 
Heartbeat CPU 2 instructions: 1160000000 cycles: 844754682 heartbeat IPC: 1.09418 cumulative IPC: 1.09399 (Simulation time: 1 hr 47 min 8 sec) 
Heartbeat CPU 2 instructions: 1170000001 cycles: 853751223 heartbeat IPC: 1.11154 cumulative IPC: 1.09422 (Simulation time: 1 hr 48 min 4 sec) 
Heartbeat CPU 1 instructions: 530000002 cycles: 859593791 heartbeat IPC: 0.516929 cumulative IPC: 0.477042 (Simulation time: 1 hr 48 min 40 sec) 
Heartbeat CPU 2 instructions: 1180000000 cycles: 862879940 heartbeat IPC: 1.09544 cumulative IPC: 1.09424 (Simulation time: 1 hr 49 min 1 sec) 
Heartbeat CPU 3 instructions: 450000001 cycles: 870140296 heartbeat IPC: 0.267564 cumulative IPC: 0.267294 (Simulation time: 1 hr 49 min 47 sec) 
Heartbeat CPU 2 instructions: 1190000002 cycles: 871882065 heartbeat IPC: 1.11085 cumulative IPC: 1.09445 (Simulation time: 1 hr 49 min 58 sec) 
Heartbeat CPU 0 instructions: 510000000 cycles: 875254263 heartbeat IPC: 0.242887 cumulative IPC: 0.239373 (Simulation time: 1 hr 50 min 19 sec) 
Heartbeat CPU 1 instructions: 540000000 cycles: 878950718 heartbeat IPC: 0.516611 cumulative IPC: 0.478119 (Simulation time: 1 hr 50 min 41 sec) 
Heartbeat CPU 2 instructions: 1200000000 cycles: 881004925 heartbeat IPC: 1.09615 cumulative IPC: 1.09447 (Simulation time: 1 hr 50 min 55 sec) 
Heartbeat CPU 2 instructions: 1210000000 cycles: 889969655 heartbeat IPC: 1.11548 cumulative IPC: 1.09473 (Simulation time: 1 hr 51 min 49 sec) 
Heartbeat CPU 1 instructions: 550000000 cycles: 898275297 heartbeat IPC: 0.517476 cumulative IPC: 0.479161 (Simulation time: 1 hr 52 min 41 sec) 
Heartbeat CPU 2 instructions: 1220000000 cycles: 898961183 heartbeat IPC: 1.11216 cumulative IPC: 1.09495 (Simulation time: 1 hr 52 min 45 sec) 
Heartbeat CPU 3 instructions: 460000000 cycles: 907223059 heartbeat IPC: 0.269667 cumulative IPC: 0.267413 (Simulation time: 1 hr 53 min 37 sec) 
Heartbeat CPU 2 instructions: 1230000001 cycles: 908097607 heartbeat IPC: 1.09452 cumulative IPC: 1.09494 (Simulation time: 1 hr 53 min 43 sec) 
Heartbeat CPU 2 instructions: 1240000000 cycles: 917088764 heartbeat IPC: 1.1122 cumulative IPC: 1.09515 (Simulation time: 1 hr 54 min 39 sec) 
Heartbeat CPU 1 instructions: 560000000 cycles: 917437009 heartbeat IPC: 0.521874 cumulative IPC: 0.480253 (Simulation time: 1 hr 54 min 41 sec) 
Heartbeat CPU 0 instructions: 520000000 cycles: 921102821 heartbeat IPC: 0.218109 cumulative IPC: 0.238078 (Simulation time: 1 hr 55 min 4 sec) 
Heartbeat CPU 2 instructions: 1250000000 cycles: 926424485 heartbeat IPC: 1.07115 cumulative IPC: 1.09485 (Simulation time: 1 hr 55 min 37 sec) 
Heartbeat CPU 2 instructions: 1260000000 cycles: 935384085 heartbeat IPC: 1.11612 cumulative IPC: 1.0951 (Simulation time: 1 hr 56 min 33 sec) 
Heartbeat CPU 1 instructions: 570000002 cycles: 936372795 heartbeat IPC: 0.528101 cumulative IPC: 0.481431 (Simulation time: 1 hr 56 min 39 sec) 
Heartbeat CPU 2 instructions: 1270000002 cycles: 944347408 heartbeat IPC: 1.11566 cumulative IPC: 1.09534 (Simulation time: 1 hr 57 min 28 sec) 
Heartbeat CPU 3 instructions: 470000000 cycles: 944348941 heartbeat IPC: 0.269354 cumulative IPC: 0.267506 (Simulation time: 1 hr 57 min 28 sec) 
Heartbeat CPU 2 instructions: 1280000000 cycles: 953661896 heartbeat IPC: 1.0736 cumulative IPC: 1.09508 (Simulation time: 1 hr 58 min 26 sec) 
Heartbeat CPU 1 instructions: 580000000 cycles: 955659983 heartbeat IPC: 0.518479 cumulative IPC: 0.482338 (Simulation time: 1 hr 58 min 38 sec) 
Heartbeat CPU 2 instructions: 1290000002 cycles: 962819812 heartbeat IPC: 1.09195 cumulative IPC: 1.09504 (Simulation time: 1 hr 59 min 24 sec) 
Heartbeat CPU 0 instructions: 530000003 cycles: 964529129 heartbeat IPC: 0.230275 cumulative IPC: 0.237653 (Simulation time: 1 hr 59 min 35 sec) 
Heartbeat CPU 2 instructions: 1300000000 cycles: 972105401 heartbeat IPC: 1.07694 cumulative IPC: 1.09483 (Simulation time: 2 hr 0 min 22 sec) 
Heartbeat CPU 1 instructions: 590000003 cycles: 974807294 heartbeat IPC: 0.522267 cumulative IPC: 0.483286 (Simulation time: 2 hr 0 min 39 sec) 
Heartbeat CPU 2 instructions: 1310000002 cycles: 980980282 heartbeat IPC: 1.12678 cumulative IPC: 1.09518 (Simulation time: 2 hr 1 min 17 sec) 
Heartbeat CPU 3 instructions: 480000000 cycles: 981429838 heartbeat IPC: 0.269681 cumulative IPC: 0.267605 (Simulation time: 2 hr 1 min 19 sec) 
Heartbeat CPU 2 instructions: 1320000000 cycles: 989852645 heartbeat IPC: 1.1271 cumulative IPC: 1.09553 (Simulation time: 2 hr 2 min 10 sec) 
Heartbeat CPU 1 instructions: 600000000 cycles: 994036754 heartbeat IPC: 0.520035 cumulative IPC: 0.484141 (Simulation time: 2 hr 2 min 37 sec) 
Heartbeat CPU 2 instructions: 1330000000 cycles: 998403264 heartbeat IPC: 1.16951 cumulative IPC: 1.09629 (Simulation time: 2 hr 3 min 6 sec) 
Heartbeat CPU 0 instructions: 540000000 cycles: 1003754637 heartbeat IPC: 0.254936 cumulative IPC: 0.238464 (Simulation time: 2 hr 3 min 39 sec) 
Heartbeat CPU 2 instructions: 1340000000 cycles: 1006927387 heartbeat IPC: 1.17314 cumulative IPC: 1.09707 (Simulation time: 2 hr 4 min 1 sec) 
Heartbeat CPU 1 instructions: 610000000 cycles: 1011282514 heartbeat IPC: 0.579853 cumulative IPC: 0.486098 (Simulation time: 2 hr 4 min 31 sec) 
Heartbeat CPU 2 instructions: 1350000000 cycles: 1015470563 heartbeat IPC: 1.17052 cumulative IPC: 1.09781 (Simulation time: 2 hr 5 min 1 sec) 
Heartbeat CPU 3 instructions: 490000001 cycles: 1019328786 heartbeat IPC: 0.26386 cumulative IPC: 0.267438 (Simulation time: 2 hr 5 min 30 sec) 
Heartbeat CPU 1 instructions: 620000000 cycles: 1023609243 heartbeat IPC: 0.811245 cumulative IPC: 0.490782 (Simulation time: 2 hr 6 min 1 sec) 
Heartbeat CPU 2 instructions: 1360000000 cycles: 1025100768 heartbeat IPC: 1.0384 cumulative IPC: 1.09714 (Simulation time: 2 hr 6 min 12 sec) 
Heartbeat CPU 2 instructions: 1370000003 cycles: 1035249813 heartbeat IPC: 0.985315 cumulative IPC: 1.09583 (Simulation time: 2 hr 7 min 26 sec) 
Heartbeat CPU 1 instructions: 630000002 cycles: 1036029396 heartbeat IPC: 0.805143 cumulative IPC: 0.495279 (Simulation time: 2 hr 7 min 31 sec) 
Heartbeat CPU 0 instructions: 550000002 cycles: 1043897330 heartbeat IPC: 0.249111 cumulative IPC: 0.238952 (Simulation time: 2 hr 8 min 27 sec) 
Heartbeat CPU 2 instructions: 1380000000 cycles: 1044059372 heartbeat IPC: 1.13513 cumulative IPC: 1.09623 (Simulation time: 2 hr 8 min 28 sec) 
Heartbeat CPU 1 instructions: 640000000 cycles: 1048372503 heartbeat IPC: 0.810169 cumulative IPC: 0.499693 (Simulation time: 2 hr 8 min 59 sec) 
Heartbeat CPU 2 instructions: 1390000003 cycles: 1052863638 heartbeat IPC: 1.13581 cumulative IPC: 1.09662 (Simulation time: 2 hr 9 min 31 sec) 
Heartbeat CPU 3 instructions: 500000000 cycles: 1057192111 heartbeat IPC: 0.264108 cumulative IPC: 0.267296 (Simulation time: 2 hr 10 min 3 sec) 
Heartbeat CPU 1 instructions: 650000002 cycles: 1060743325 heartbeat IPC: 0.808354 cumulative IPC: 0.503969 (Simulation time: 2 hr 10 min 27 sec) 
Heartbeat CPU 2 instructions: 1400000000 cycles: 1061674065 heartbeat IPC: 1.13502 cumulative IPC: 1.097 (Simulation time: 2 hr 10 min 34 sec) 
Heartbeat CPU 2 instructions: 1410000001 cycles: 1070484636 heartbeat IPC: 1.135 cumulative IPC: 1.09737 (Simulation time: 2 hr 11 min 37 sec) 
Heartbeat CPU 1 instructions: 660000000 cycles: 1073090946 heartbeat IPC: 0.809872 cumulative IPC: 0.508142 (Simulation time: 2 hr 11 min 56 sec) 
Finished CPU 2 instructions: 1000000002 cycles: 910940038 cumulative IPC: 1.09777 (Simulation time: 2 hr 12 min 36 sec) 
Heartbeat CPU 2 instructions: 1420000000 cycles: 1079260984 heartbeat IPC: 1.13943 cumulative IPC: 1.09778 (Simulation time: 2 hr 12 min 40 sec) 
Heartbeat CPU 0 instructions: 560000000 cycles: 1081900737 heartbeat IPC: 0.263134 cumulative IPC: 0.239957 (Simulation time: 2 hr 12 min 59 sec) 
Heartbeat CPU 1 instructions: 670000000 cycles: 1085400946 heartbeat IPC: 0.812348 cumulative IPC: 0.512223 (Simulation time: 2 hr 13 min 25 sec) 
Heartbeat CPU 2 instructions: 1430000001 cycles: 1088032373 heartbeat IPC: 1.14007 cumulative IPC: 1.09818 (Simulation time: 2 hr 13 min 43 sec) 
Heartbeat CPU 3 instructions: 510000000 cycles: 1094754924 heartbeat IPC: 0.266221 cumulative IPC: 0.267253 (Simulation time: 2 hr 14 min 31 sec) 
Heartbeat CPU 2 instructions: 1440000000 cycles: 1096780381 heartbeat IPC: 1.14312 cumulative IPC: 1.0986 (Simulation time: 2 hr 14 min 45 sec) 
Heartbeat CPU 1 instructions: 680000000 cycles: 1097879320 heartbeat IPC: 0.801386 cumulative IPC: 0.516102 (Simulation time: 2 hr 14 min 52 sec) 
Heartbeat CPU 2 instructions: 1450000002 cycles: 1105988234 heartbeat IPC: 1.08603 cumulative IPC: 1.09848 (Simulation time: 2 hr 15 min 49 sec) 
Heartbeat CPU 1 instructions: 690000003 cycles: 1110405783 heartbeat IPC: 0.79831 cumulative IPC: 0.519853 (Simulation time: 2 hr 16 min 20 sec) 
Heartbeat CPU 2 instructions: 1460000000 cycles: 1115164433 heartbeat IPC: 1.08978 cumulative IPC: 1.0984 (Simulation time: 2 hr 16 min 54 sec) 
Heartbeat CPU 1 instructions: 700000000 cycles: 1122329351 heartbeat IPC: 0.838675 cumulative IPC: 0.523836 (Simulation time: 2 hr 17 min 44 sec) 
Heartbeat CPU 0 instructions: 570000002 cycles: 1122666772 heartbeat IPC: 0.245302 cumulative IPC: 0.240186 (Simulation time: 2 hr 17 min 46 sec) 
Heartbeat CPU 2 instructions: 1470000000 cycles: 1124337316 heartbeat IPC: 1.09017 cumulative IPC: 1.09832 (Simulation time: 2 hr 17 min 58 sec) 
Heartbeat CPU 3 instructions: 520000000 cycles: 1130648955 heartbeat IPC: 0.278598 cumulative IPC: 0.267676 (Simulation time: 2 hr 18 min 44 sec) 
Heartbeat CPU 2 instructions: 1480000000 cycles: 1133925716 heartbeat IPC: 1.04293 cumulative IPC: 1.09777 (Simulation time: 2 hr 19 min 7 sec) 
Heartbeat CPU 1 instructions: 710000003 cycles: 1134226852 heartbeat IPC: 0.840513 cumulative IPC: 0.527734 (Simulation time: 2 hr 19 min 9 sec) 
Heartbeat CPU 2 instructions: 1490000000 cycles: 1142880391 heartbeat IPC: 1.11674 cumulative IPC: 1.09794 (Simulation time: 2 hr 20 min 10 sec) 
Heartbeat CPU 1 instructions: 720000000 cycles: 1146138442 heartbeat IPC: 0.839518 cumulative IPC: 0.53153 (Simulation time: 2 hr 20 min 34 sec) 
Heartbeat CPU 2 instructions: 1500000000 cycles: 1152048460 heartbeat IPC: 1.09074 cumulative IPC: 1.09787 (Simulation time: 2 hr 21 min 15 sec) 
Heartbeat CPU 1 instructions: 730000001 cycles: 1158051498 heartbeat IPC: 0.839415 cumulative IPC: 0.535235 (Simulation time: 2 hr 21 min 58 sec) 
Heartbeat CPU 2 instructions: 1510000000 cycles: 1161084748 heartbeat IPC: 1.10665 cumulative IPC: 1.09795 (Simulation time: 2 hr 22 min 19 sec) 
Heartbeat CPU 0 instructions: 580000000 cycles: 1162149857 heartbeat IPC: 0.253273 cumulative IPC: 0.240705 (Simulation time: 2 hr 22 min 27 sec) 
Heartbeat CPU 3 instructions: 530000000 cycles: 1166571251 heartbeat IPC: 0.278379 cumulative IPC: 0.268061 (Simulation time: 2 hr 22 min 58 sec) 
Heartbeat CPU 1 instructions: 740000000 cycles: 1169958909 heartbeat IPC: 0.839813 cumulative IPC: 0.538854 (Simulation time: 2 hr 23 min 22 sec) 
Heartbeat CPU 2 instructions: 1520000000 cycles: 1170150530 heartbeat IPC: 1.10305 cumulative IPC: 1.098 (Simulation time: 2 hr 23 min 23 sec) 
Heartbeat CPU 2 instructions: 1530000000 cycles: 1179121191 heartbeat IPC: 1.11475 cumulative IPC: 1.09815 (Simulation time: 2 hr 24 min 27 sec) 
Heartbeat CPU 1 instructions: 750000003 cycles: 1181868062 heartbeat IPC: 0.839691 cumulative IPC: 0.542387 (Simulation time: 2 hr 24 min 47 sec) 
Heartbeat CPU 2 instructions: 1540000000 cycles: 1188153956 heartbeat IPC: 1.10708 cumulative IPC: 1.09823 (Simulation time: 2 hr 25 min 33 sec) 
Heartbeat CPU 1 instructions: 760000000 cycles: 1193778126 heartbeat IPC: 0.839626 cumulative IPC: 0.545837 (Simulation time: 2 hr 26 min 13 sec) 
Heartbeat CPU 2 instructions: 1550000000 cycles: 1197150048 heartbeat IPC: 1.11159 cumulative IPC: 1.09835 (Simulation time: 2 hr 26 min 36 sec) 
Heartbeat CPU 0 instructions: 590000002 cycles: 1201794110 heartbeat IPC: 0.252243 cumulative IPC: 0.241148 (Simulation time: 2 hr 27 min 9 sec) 
Heartbeat CPU 3 instructions: 540000000 cycles: 1202143683 heartbeat IPC: 0.281117 cumulative IPC: 0.26851 (Simulation time: 2 hr 27 min 11 sec) 
Heartbeat CPU 1 instructions: 770000000 cycles: 1205737625 heartbeat IPC: 0.836155 cumulative IPC: 0.549183 (Simulation time: 2 hr 27 min 36 sec) 
Heartbeat CPU 2 instructions: 1560000000 cycles: 1206158370 heartbeat IPC: 1.11008 cumulative IPC: 1.09845 (Simulation time: 2 hr 27 min 39 sec) 
Heartbeat CPU 2 instructions: 1570000002 cycles: 1215170864 heartbeat IPC: 1.10957 cumulative IPC: 1.09854 (Simulation time: 2 hr 28 min 43 sec) 
Heartbeat CPU 1 instructions: 780000000 cycles: 1218171514 heartbeat IPC: 0.804254 cumulative IPC: 0.552202 (Simulation time: 2 hr 29 min 5 sec) 
Heartbeat CPU 2 instructions: 1580000000 cycles: 1224165530 heartbeat IPC: 1.11177 cumulative IPC: 1.09866 (Simulation time: 2 hr 29 min 48 sec) 
Heartbeat CPU 1 instructions: 790000000 cycles: 1230627827 heartbeat IPC: 0.802806 cumulative IPC: 0.555139 (Simulation time: 2 hr 30 min 35 sec) 
Heartbeat CPU 2 instructions: 1590000001 cycles: 1233205640 heartbeat IPC: 1.10618 cumulative IPC: 1.09872 (Simulation time: 2 hr 30 min 53 sec) 
Heartbeat CPU 3 instructions: 550000000 cycles: 1238430413 heartbeat IPC: 0.275583 cumulative IPC: 0.268749 (Simulation time: 2 hr 31 min 31 sec) 
Heartbeat CPU 0 instructions: 600000000 cycles: 1241669310 heartbeat IPC: 0.250782 cumulative IPC: 0.241505 (Simulation time: 2 hr 31 min 54 sec) 
Heartbeat CPU 2 instructions: 1600000000 cycles: 1242170474 heartbeat IPC: 1.11547 cumulative IPC: 1.09886 (Simulation time: 2 hr 31 min 57 sec) 
Heartbeat CPU 1 instructions: 800000000 cycles: 1243134015 heartbeat IPC: 0.799604 cumulative IPC: 0.557983 (Simulation time: 2 hr 32 min 4 sec) 
Heartbeat CPU 2 instructions: 1610000000 cycles: 1251210563 heartbeat IPC: 1.10618 cumulative IPC: 1.09892 (Simulation time: 2 hr 33 min 1 sec) 
Heartbeat CPU 1 instructions: 810000000 cycles: 1255607264 heartbeat IPC: 0.801716 cumulative IPC: 0.560777 (Simulation time: 2 hr 33 min 33 sec) 
Heartbeat CPU 2 instructions: 1620000000 cycles: 1260178894 heartbeat IPC: 1.11503 cumulative IPC: 1.09905 (Simulation time: 2 hr 34 min 5 sec) 
Heartbeat CPU 1 instructions: 820000000 cycles: 1268056491 heartbeat IPC: 0.803263 cumulative IPC: 0.563521 (Simulation time: 2 hr 35 min 1 sec) 
Heartbeat CPU 2 instructions: 1630000002 cycles: 1269241728 heartbeat IPC: 1.10341 cumulative IPC: 1.09909 (Simulation time: 2 hr 35 min 9 sec) 
Heartbeat CPU 3 instructions: 560000000 cycles: 1274325581 heartbeat IPC: 0.278589 cumulative IPC: 0.269069 (Simulation time: 2 hr 35 min 47 sec) 
Heartbeat CPU 2 instructions: 1640000000 cycles: 1278178376 heartbeat IPC: 1.11899 cumulative IPC: 1.09925 (Simulation time: 2 hr 36 min 15 sec) 
Heartbeat CPU 1 instructions: 830000003 cycles: 1280519513 heartbeat IPC: 0.802374 cumulative IPC: 0.566196 (Simulation time: 2 hr 36 min 33 sec) 
Heartbeat CPU 0 instructions: 610000002 cycles: 1282748881 heartbeat IPC: 0.24343 cumulative IPC: 0.241576 (Simulation time: 2 hr 36 min 49 sec) 
Heartbeat CPU 2 instructions: 1650000000 cycles: 1287250299 heartbeat IPC: 1.1023 cumulative IPC: 1.09927 (Simulation time: 2 hr 37 min 21 sec) 
Heartbeat CPU 1 instructions: 840000000 cycles: 1293026952 heartbeat IPC: 0.799524 cumulative IPC: 0.56879 (Simulation time: 2 hr 38 min 3 sec) 
Heartbeat CPU 2 instructions: 1660000000 cycles: 1296217151 heartbeat IPC: 1.11522 cumulative IPC: 1.0994 (Simulation time: 2 hr 38 min 25 sec) 
Heartbeat CPU 2 instructions: 1670000002 cycles: 1305234422 heartbeat IPC: 1.10898 cumulative IPC: 1.09948 (Simulation time: 2 hr 39 min 29 sec) 
Heartbeat CPU 1 instructions: 850000003 cycles: 1305506032 heartbeat IPC: 0.801341 cumulative IPC: 0.571341 (Simulation time: 2 hr 39 min 31 sec) 
Heartbeat CPU 3 instructions: 570000001 cycles: 1310234678 heartbeat IPC: 0.278481 cumulative IPC: 0.269365 (Simulation time: 2 hr 40 min 5 sec) 
Heartbeat CPU 2 instructions: 1680000000 cycles: 1314202649 heartbeat IPC: 1.11505 cumulative IPC: 1.0996 (Simulation time: 2 hr 40 min 34 sec) 
Heartbeat CPU 1 instructions: 860000000 cycles: 1317983546 heartbeat IPC: 0.801441 cumulative IPC: 0.573837 (Simulation time: 2 hr 41 min 2 sec) 
Heartbeat CPU 2 instructions: 1690000003 cycles: 1324067816 heartbeat IPC: 1.01367 cumulative IPC: 1.09886 (Simulation time: 2 hr 41 min 47 sec) 
Heartbeat CPU 0 instructions: 620000000 cycles: 1324709461 heartbeat IPC: 0.238319 cumulative IPC: 0.241458 (Simulation time: 2 hr 41 min 52 sec) 
Heartbeat CPU 1 instructions: 870000000 cycles: 1330438600 heartbeat IPC: 0.802887 cumulative IPC: 0.576291 (Simulation time: 2 hr 42 min 33 sec) 
Heartbeat CPU 2 instructions: 1700000000 cycles: 1333344021 heartbeat IPC: 1.07803 cumulative IPC: 1.0987 (Simulation time: 2 hr 42 min 54 sec) 
Heartbeat CPU 2 instructions: 1710000003 cycles: 1342283002 heartbeat IPC: 1.1187 cumulative IPC: 1.09885 (Simulation time: 2 hr 43 min 55 sec) 
Heartbeat CPU 1 instructions: 880000000 cycles: 1342841129 heartbeat IPC: 0.806287 cumulative IPC: 0.578719 (Simulation time: 2 hr 43 min 59 sec) 
Heartbeat CPU 2 instructions: 1720000000 cycles: 1351088264 heartbeat IPC: 1.13568 cumulative IPC: 1.09913 (Simulation time: 2 hr 44 min 57 sec) 
Heartbeat CPU 3 instructions: 580000000 cycles: 1352256710 heartbeat IPC: 0.23797 cumulative IPC: 0.268251 (Simulation time: 2 hr 45 min 5 sec) 
Heartbeat CPU 1 instructions: 890000000 cycles: 1355318096 heartbeat IPC: 0.801477 cumulative IPC: 0.581059 (Simulation time: 2 hr 45 min 27 sec) 
Heartbeat CPU 2 instructions: 1730000000 cycles: 1359854715 heartbeat IPC: 1.14071 cumulative IPC: 1.09943 (Simulation time: 2 hr 45 min 58 sec) 
Heartbeat CPU 0 instructions: 630000000 cycles: 1363865440 heartbeat IPC: 0.255389 cumulative IPC: 0.241914 (Simulation time: 2 hr 46 min 28 sec) 
Heartbeat CPU 1 instructions: 900000000 cycles: 1367798497 heartbeat IPC: 0.801256 cumulative IPC: 0.583349 (Simulation time: 2 hr 46 min 57 sec) 
Heartbeat CPU 2 instructions: 1740000000 cycles: 1368611359 heartbeat IPC: 1.14199 cumulative IPC: 1.09974 (Simulation time: 2 hr 47 min 2 sec) 
Heartbeat CPU 2 instructions: 1750000001 cycles: 1377431022 heartbeat IPC: 1.13383 cumulative IPC: 1.09999 (Simulation time: 2 hr 48 min 5 sec) 
Heartbeat CPU 1 instructions: 910000002 cycles: 1380232247 heartbeat IPC: 0.804263 cumulative IPC: 0.585615 (Simulation time: 2 hr 48 min 25 sec) 
Heartbeat CPU 2 instructions: 1760000000 cycles: 1386232431 heartbeat IPC: 1.13618 cumulative IPC: 1.10025 (Simulation time: 2 hr 49 min 7 sec) 
Heartbeat CPU 3 instructions: 590000000 cycles: 1388298385 heartbeat IPC: 0.277457 cumulative IPC: 0.268523 (Simulation time: 2 hr 49 min 22 sec) 
Heartbeat CPU 1 instructions: 920000000 cycles: 1392687883 heartbeat IPC: 0.802849 cumulative IPC: 0.587824 (Simulation time: 2 hr 49 min 54 sec) 
Heartbeat CPU 2 instructions: 1770000001 cycles: 1395053552 heartbeat IPC: 1.13364 cumulative IPC: 1.10049 (Simulation time: 2 hr 50 min 10 sec) 
Heartbeat CPU 2 instructions: 1780000000 cycles: 1403861917 heartbeat IPC: 1.13528 cumulative IPC: 1.10074 (Simulation time: 2 hr 51 min 14 sec) 
Heartbeat CPU 0 instructions: 640000000 cycles: 1404889554 heartbeat IPC: 0.243759 cumulative IPC: 0.241975 (Simulation time: 2 hr 51 min 22 sec) 
Heartbeat CPU 1 instructions: 930000001 cycles: 1405191025 heartbeat IPC: 0.799799 cumulative IPC: 0.589966 (Simulation time: 2 hr 51 min 24 sec) 
Heartbeat CPU 2 instructions: 1790000001 cycles: 1414973447 heartbeat IPC: 0.899966 cumulative IPC: 1.09895 (Simulation time: 2 hr 52 min 35 sec) 
Heartbeat CPU 1 instructions: 940000000 cycles: 1417730948 heartbeat IPC: 0.797453 cumulative IPC: 0.592048 (Simulation time: 2 hr 52 min 55 sec) 
Heartbeat CPU 2 instructions: 1800000000 cycles: 1423859380 heartbeat IPC: 1.12537 cumulative IPC: 1.09914 (Simulation time: 2 hr 53 min 38 sec) 
Heartbeat CPU 3 instructions: 600000000 cycles: 1424868596 heartbeat IPC: 0.273447 cumulative IPC: 0.268666 (Simulation time: 2 hr 53 min 45 sec) 
Heartbeat CPU 1 instructions: 950000003 cycles: 1430219784 heartbeat IPC: 0.800715 cumulative IPC: 0.594112 (Simulation time: 2 hr 54 min 24 sec) 
Heartbeat CPU 2 instructions: 1810000001 cycles: 1433100840 heartbeat IPC: 1.08208 cumulative IPC: 1.09901 (Simulation time: 2 hr 54 min 45 sec) 
Heartbeat CPU 2 instructions: 1820000000 cycles: 1442592563 heartbeat IPC: 1.05355 cumulative IPC: 1.09867 (Simulation time: 2 hr 55 min 54 sec) 
Heartbeat CPU 1 instructions: 960000000 cycles: 1442669006 heartbeat IPC: 0.803263 cumulative IPC: 0.596154 (Simulation time: 2 hr 55 min 55 sec) 
Heartbeat CPU 0 instructions: 650000001 cycles: 1450148081 heartbeat IPC: 0.220953 cumulative IPC: 0.241233 (Simulation time: 2 hr 56 min 48 sec) 
Heartbeat CPU 2 instructions: 1830000001 cycles: 1451780837 heartbeat IPC: 1.08834 cumulative IPC: 1.0986 (Simulation time: 2 hr 57 min 0 sec) 
Heartbeat CPU 1 instructions: 970000003 cycles: 1455137204 heartbeat IPC: 0.802041 cumulative IPC: 0.598148 (Simulation time: 2 hr 57 min 25 sec) 
Heartbeat CPU 3 instructions: 610000000 cycles: 1460324372 heartbeat IPC: 0.282041 cumulative IPC: 0.269033 (Simulation time: 2 hr 58 min 2 sec) 
Heartbeat CPU 2 instructions: 1840000000 cycles: 1461607629 heartbeat IPC: 1.01763 cumulative IPC: 1.09799 (Simulation time: 2 hr 58 min 11 sec) 
Heartbeat CPU 1 instructions: 980000000 cycles: 1467622350 heartbeat IPC: 0.800952 cumulative IPC: 0.600097 (Simulation time: 2 hr 58 min 54 sec) 
Heartbeat CPU 2 instructions: 1850000000 cycles: 1471223653 heartbeat IPC: 1.03993 cumulative IPC: 1.09756 (Simulation time: 2 hr 59 min 20 sec) 
Heartbeat CPU 1 instructions: 990000000 cycles: 1480101768 heartbeat IPC: 0.801319 cumulative IPC: 0.60201 (Simulation time: 3 hr 0 min 25 sec) 
Heartbeat CPU 2 instructions: 1860000000 cycles: 1480803295 heartbeat IPC: 1.04388 cumulative IPC: 1.09717 (Simulation time: 3 hr 0 min 30 sec) 
Heartbeat CPU 0 instructions: 660000000 cycles: 1484777217 heartbeat IPC: 0.288774 cumulative IPC: 0.242484 (Simulation time: 3 hr 0 min 59 sec) 
Heartbeat CPU 2 instructions: 1870000003 cycles: 1490276892 heartbeat IPC: 1.05557 cumulative IPC: 1.09687 (Simulation time: 3 hr 1 min 39 sec) 
Heartbeat CPU 1 instructions: 1000000000 cycles: 1492579734 heartbeat IPC: 0.801413 cumulative IPC: 0.603888 (Simulation time: 3 hr 1 min 55 sec) 
Heartbeat CPU 3 instructions: 620000000 cycles: 1495748423 heartbeat IPC: 0.282294 cumulative IPC: 0.269387 (Simulation time: 3 hr 2 min 20 sec) 
Heartbeat CPU 2 instructions: 1880000000 cycles: 1499860894 heartbeat IPC: 1.04341 cumulative IPC: 1.09648 (Simulation time: 3 hr 2 min 49 sec) 
Heartbeat CPU 1 instructions: 1010000002 cycles: 1505140125 heartbeat IPC: 0.796154 cumulative IPC: 0.605694 (Simulation time: 3 hr 3 min 28 sec) 
Heartbeat CPU 2 instructions: 1890000002 cycles: 1509475889 heartbeat IPC: 1.04004 cumulative IPC: 1.09608 (Simulation time: 3 hr 3 min 59 sec) 
Heartbeat CPU 1 instructions: 1020000000 cycles: 1517644733 heartbeat IPC: 0.799705 cumulative IPC: 0.607491 (Simulation time: 3 hr 4 min 58 sec) 
Heartbeat CPU 2 instructions: 1900000000 cycles: 1518966034 heartbeat IPC: 1.05372 cumulative IPC: 1.09578 (Simulation time: 3 hr 5 min 7 sec) 
Heartbeat CPU 0 instructions: 670000003 cycles: 1525628561 heartbeat IPC: 0.24479 cumulative IPC: 0.242553 (Simulation time: 3 hr 5 min 53 sec) 
Heartbeat CPU 2 instructions: 1910000000 cycles: 1528363191 heartbeat IPC: 1.06415 cumulative IPC: 1.09556 (Simulation time: 3 hr 6 min 12 sec) 
Heartbeat CPU 1 instructions: 1030000001 cycles: 1531265591 heartbeat IPC: 0.734168 cumulative IPC: 0.608757 (Simulation time: 3 hr 6 min 31 sec) 
Heartbeat CPU 3 instructions: 630000002 cycles: 1531527489 heartbeat IPC: 0.279493 cumulative IPC: 0.269652 (Simulation time: 3 hr 6 min 33 sec) 
Heartbeat CPU 2 instructions: 1920000000 cycles: 1537983869 heartbeat IPC: 1.03943 cumulative IPC: 1.09517 (Simulation time: 3 hr 7 min 18 sec) 
Heartbeat CPU 1 instructions: 1040000000 cycles: 1544492075 heartbeat IPC: 0.756059 cumulative IPC: 0.610172 (Simulation time: 3 hr 8 min 5 sec) 
Heartbeat CPU 2 instructions: 1930000003 cycles: 1547302031 heartbeat IPC: 1.07317 cumulative IPC: 1.09502 (Simulation time: 3 hr 8 min 25 sec) 
Heartbeat CPU 2 instructions: 1940000000 cycles: 1556572006 heartbeat IPC: 1.07875 cumulative IPC: 1.09491 (Simulation time: 3 hr 9 min 30 sec) 
Heartbeat CPU 1 instructions: 1050000002 cycles: 1557507992 heartbeat IPC: 0.76829 cumulative IPC: 0.611653 (Simulation time: 3 hr 9 min 37 sec) 
Heartbeat CPU 2 instructions: 1950000000 cycles: 1565407757 heartbeat IPC: 1.13177 cumulative IPC: 1.09514 (Simulation time: 3 hr 10 min 33 sec) 
Heartbeat CPU 3 instructions: 640000000 cycles: 1566566384 heartbeat IPC: 0.285397 cumulative IPC: 0.270046 (Simulation time: 3 hr 10 min 42 sec) 
Heartbeat CPU 0 instructions: 680000000 cycles: 1567825706 heartbeat IPC: 0.236983 cumulative IPC: 0.242385 (Simulation time: 3 hr 10 min 51 sec) 
Heartbeat CPU 1 instructions: 1060000000 cycles: 1570556775 heartbeat IPC: 0.766355 cumulative IPC: 0.613092 (Simulation time: 3 hr 11 min 10 sec) 
Heartbeat CPU 2 instructions: 1960000000 cycles: 1575956985 heartbeat IPC: 0.947937 cumulative IPC: 1.09404 (Simulation time: 3 hr 11 min 49 sec) 
Heartbeat CPU 1 instructions: 1070000001 cycles: 1583723690 heartbeat IPC: 0.759479 cumulative IPC: 0.614454 (Simulation time: 3 hr 12 min 44 sec) 
Heartbeat CPU 2 instructions: 1970000000 cycles: 1585331597 heartbeat IPC: 1.06671 cumulative IPC: 1.09386 (Simulation time: 3 hr 12 min 56 sec) 
Heartbeat CPU 2 instructions: 1980000000 cycles: 1594226598 heartbeat IPC: 1.12423 cumulative IPC: 1.09405 (Simulation time: 3 hr 13 min 56 sec) 
Heartbeat CPU 1 instructions: 1080000000 cycles: 1596770690 heartbeat IPC: 0.76646 cumulative IPC: 0.615841 (Simulation time: 3 hr 14 min 14 sec) 
Heartbeat CPU 3 instructions: 650000000 cycles: 1602215816 heartbeat IPC: 0.280509 cumulative IPC: 0.270306 (Simulation time: 3 hr 14 min 53 sec) 
Heartbeat CPU 2 instructions: 1990000000 cycles: 1603191467 heartbeat IPC: 1.11547 cumulative IPC: 1.09418 (Simulation time: 3 hr 15 min 0 sec) 
Heartbeat CPU 1 instructions: 1090000002 cycles: 1609821855 heartbeat IPC: 0.766215 cumulative IPC: 0.617202 (Simulation time: 3 hr 15 min 47 sec) 
Heartbeat CPU 0 instructions: 690000000 cycles: 1610223959 heartbeat IPC: 0.235859 cumulative IPC: 0.242193 (Simulation time: 3 hr 15 min 50 sec) 
*** Reached end of trace for Core: 2 Repeating trace: /home/ubuntu/PPF_Paper_Source_Code-master/traces/603.bwaves_s-1080B.champsimtrace.xz
Heartbeat CPU 2 instructions: 2000000000 cycles: 1612763454 heartbeat IPC: 1.04472 cumulative IPC: 1.09386 (Simulation time: 3 hr 16 min 9 sec) 
Heartbeat CPU 2 instructions: 2010000003 cycles: 1622588490 heartbeat IPC: 1.01781 cumulative IPC: 1.09334 (Simulation time: 3 hr 17 min 20 sec) 
Heartbeat CPU 1 instructions: 1100000000 cycles: 1622897966 heartbeat IPC: 0.764753 cumulative IPC: 0.618528 (Simulation time: 3 hr 17 min 23 sec) 
Heartbeat CPU 2 instructions: 2020000000 cycles: 1632933822 heartbeat IPC: 0.966619 cumulative IPC: 1.09245 (Simulation time: 3 hr 18 min 35 sec) 
Heartbeat CPU 1 instructions: 1110000001 cycles: 1636075577 heartbeat IPC: 0.758863 cumulative IPC: 0.619788 (Simulation time: 3 hr 18 min 57 sec) 
Heartbeat CPU 3 instructions: 660000000 cycles: 1638020945 heartbeat IPC: 0.27929 cumulative IPC: 0.270525 (Simulation time: 3 hr 19 min 11 sec) 
Heartbeat CPU 2 instructions: 2030000001 cycles: 1641460629 heartbeat IPC: 1.17277 cumulative IPC: 1.09291 (Simulation time: 3 hr 19 min 36 sec) 
Heartbeat CPU 1 instructions: 1120000000 cycles: 1649198726 heartbeat IPC: 0.762012 cumulative IPC: 0.621048 (Simulation time: 3 hr 20 min 31 sec) 
Heartbeat CPU 2 instructions: 2040000000 cycles: 1650001536 heartbeat IPC: 1.17084 cumulative IPC: 1.09336 (Simulation time: 3 hr 20 min 37 sec) 
Heartbeat CPU 0 instructions: 700000000 cycles: 1651353212 heartbeat IPC: 0.243136 cumulative IPC: 0.242219 (Simulation time: 3 hr 20 min 47 sec) 
Heartbeat CPU 2 instructions: 2050000000 cycles: 1658601956 heartbeat IPC: 1.16273 cumulative IPC: 1.09376 (Simulation time: 3 hr 21 min 39 sec) 
Heartbeat CPU 1 instructions: 1130000000 cycles: 1662275690 heartbeat IPC: 0.764704 cumulative IPC: 0.622305 (Simulation time: 3 hr 22 min 5 sec) 
Heartbeat CPU 2 instructions: 2060000000 cycles: 1667431343 heartbeat IPC: 1.13258 cumulative IPC: 1.09399 (Simulation time: 3 hr 22 min 42 sec) 
Heartbeat CPU 3 instructions: 670000000 cycles: 1673151047 heartbeat IPC: 0.284656 cumulative IPC: 0.270855 (Simulation time: 3 hr 23 min 22 sec) 
Heartbeat CPU 1 instructions: 1140000000 cycles: 1675309103 heartbeat IPC: 0.767259 cumulative IPC: 0.623558 (Simulation time: 3 hr 23 min 37 sec) 
Heartbeat CPU 2 instructions: 2070000000 cycles: 1676236715 heartbeat IPC: 1.13567 cumulative IPC: 1.09423 (Simulation time: 3 hr 23 min 43 sec) 
Heartbeat CPU 2 instructions: 2080000000 cycles: 1685063940 heartbeat IPC: 1.13286 cumulative IPC: 1.09446 (Simulation time: 3 hr 24 min 47 sec) 
Heartbeat CPU 1 instructions: 1150000003 cycles: 1688418675 heartbeat IPC: 0.762802 cumulative IPC: 0.624759 (Simulation time: 3 hr 25 min 10 sec) 
Heartbeat CPU 0 instructions: 710000001 cycles: 1688442733 heartbeat IPC: 0.269618 cumulative IPC: 0.242888 (Simulation time: 3 hr 25 min 10 sec) 
Heartbeat CPU 2 instructions: 2090000000 cycles: 1693907427 heartbeat IPC: 1.13078 cumulative IPC: 1.09467 (Simulation time: 3 hr 25 min 50 sec) 
Heartbeat CPU 1 instructions: 1160000000 cycles: 1701494797 heartbeat IPC: 0.764753 cumulative IPC: 0.625952 (Simulation time: 3 hr 26 min 45 sec) 
Heartbeat CPU 2 instructions: 2100000000 cycles: 1702751236 heartbeat IPC: 1.13073 cumulative IPC: 1.09488 (Simulation time: 3 hr 26 min 54 sec) 
Heartbeat CPU 3 instructions: 680000000 cycles: 1708245550 heartbeat IPC: 0.284945 cumulative IPC: 0.271176 (Simulation time: 3 hr 27 min 32 sec) 
Heartbeat CPU 2 instructions: 2110000001 cycles: 1711551910 heartbeat IPC: 1.13628 cumulative IPC: 1.09511 (Simulation time: 3 hr 27 min 56 sec) 
Heartbeat CPU 1 instructions: 1170000003 cycles: 1714540855 heartbeat IPC: 0.766515 cumulative IPC: 0.627138 (Simulation time: 3 hr 28 min 19 sec) 
Heartbeat CPU 2 instructions: 2120000000 cycles: 1720319227 heartbeat IPC: 1.1406 cumulative IPC: 1.09537 (Simulation time: 3 hr 29 min 0 sec) 
Heartbeat CPU 0 instructions: 720000000 cycles: 1723897272 heartbeat IPC: 0.282051 cumulative IPC: 0.24378 (Simulation time: 3 hr 29 min 27 sec) 
Heartbeat CPU 1 instructions: 1180000000 cycles: 1727571227 heartbeat IPC: 0.767438 cumulative IPC: 0.62831 (Simulation time: 3 hr 29 min 53 sec) 
Heartbeat CPU 2 instructions: 2130000000 cycles: 1729075200 heartbeat IPC: 1.14208 cumulative IPC: 1.09563 (Simulation time: 3 hr 30 min 3 sec) 
Heartbeat CPU 2 instructions: 2140000000 cycles: 1737833044 heartbeat IPC: 1.14183 cumulative IPC: 1.09589 (Simulation time: 3 hr 31 min 4 sec) 
Heartbeat CPU 1 instructions: 1190000003 cycles: 1740650871 heartbeat IPC: 0.764547 cumulative IPC: 0.629443 (Simulation time: 3 hr 31 min 25 sec) 
Heartbeat CPU 3 instructions: 690000001 cycles: 1743408234 heartbeat IPC: 0.284392 cumulative IPC: 0.271471 (Simulation time: 3 hr 31 min 45 sec) 
Heartbeat CPU 2 instructions: 2150000002 cycles: 1746656867 heartbeat IPC: 1.1333 cumulative IPC: 1.0961 (Simulation time: 3 hr 32 min 7 sec) 
Heartbeat CPU 1 instructions: 1200000000 cycles: 1753720029 heartbeat IPC: 0.76516 cumulative IPC: 0.630561 (Simulation time: 3 hr 32 min 57 sec) 
Finished CPU 1 instructions: 1000000000 cycles: 1585888630 cumulative IPC: 0.630561 (Simulation time: 3 hr 32 min 57 sec) 
Heartbeat CPU 2 instructions: 2160000000 cycles: 1755475126 heartbeat IPC: 1.13401 cumulative IPC: 1.09631 (Simulation time: 3 hr 33 min 9 sec) 
Heartbeat CPU 2 instructions: 2170000002 cycles: 1764346369 heartbeat IPC: 1.12724 cumulative IPC: 1.09648 (Simulation time: 3 hr 34 min 11 sec) 
Heartbeat CPU 0 instructions: 730000002 cycles: 1764854404 heartbeat IPC: 0.244158 cumulative IPC: 0.24379 (Simulation time: 3 hr 34 min 15 sec) 
Heartbeat CPU 1 instructions: 1210000002 cycles: 1766773893 heartbeat IPC: 0.766057 cumulative IPC: 0.631667 (Simulation time: 3 hr 34 min 28 sec) 
Heartbeat CPU 2 instructions: 2180000000 cycles: 1773152549 heartbeat IPC: 1.13557 cumulative IPC: 1.09669 (Simulation time: 3 hr 35 min 13 sec) 
Heartbeat CPU 3 instructions: 700000000 cycles: 1778003342 heartbeat IPC: 0.289058 cumulative IPC: 0.271849 (Simulation time: 3 hr 35 min 47 sec) 
Heartbeat CPU 1 instructions: 1220000000 cycles: 1779771837 heartbeat IPC: 0.769352 cumulative IPC: 0.632778 (Simulation time: 3 hr 36 min 0 sec) 
Heartbeat CPU 2 instructions: 2190000001 cycles: 1782002982 heartbeat IPC: 1.12989 cumulative IPC: 1.09688 (Simulation time: 3 hr 36 min 15 sec) 
Heartbeat CPU 2 instructions: 2200000000 cycles: 1790868712 heartbeat IPC: 1.12794 cumulative IPC: 1.09705 (Simulation time: 3 hr 37 min 19 sec) 
Heartbeat CPU 1 instructions: 1230000000 cycles: 1792763334 heartbeat IPC: 0.769734 cumulative IPC: 0.633873 (Simulation time: 3 hr 37 min 32 sec) 
Heartbeat CPU 2 instructions: 2210000003 cycles: 1799691851 heartbeat IPC: 1.13338 cumulative IPC: 1.09724 (Simulation time: 3 hr 38 min 20 sec) 
Heartbeat CPU 0 instructions: 740000000 cycles: 1803271400 heartbeat IPC: 0.260301 cumulative IPC: 0.244178 (Simulation time: 3 hr 38 min 46 sec) 
Heartbeat CPU 1 instructions: 1240000000 cycles: 1805811472 heartbeat IPC: 0.766393 cumulative IPC: 0.634928 (Simulation time: 3 hr 39 min 3 sec) 
Heartbeat CPU 2 instructions: 2220000000 cycles: 1808539059 heartbeat IPC: 1.1303 cumulative IPC: 1.09742 (Simulation time: 3 hr 39 min 22 sec) 
Heartbeat CPU 3 instructions: 710000000 cycles: 1811036892 heartbeat IPC: 0.302723 cumulative IPC: 0.272469 (Simulation time: 3 hr 39 min 39 sec) 
Heartbeat CPU 2 instructions: 2230000001 cycles: 1817368071 heartbeat IPC: 1.13263 cumulative IPC: 1.09761 (Simulation time: 3 hr 40 min 24 sec) 
Heartbeat CPU 1 instructions: 1250000002 cycles: 1818847500 heartbeat IPC: 0.767105 cumulative IPC: 0.635972 (Simulation time: 3 hr 40 min 34 sec) 
Heartbeat CPU 2 instructions: 2240000000 cycles: 1826223286 heartbeat IPC: 1.12928 cumulative IPC: 1.09778 (Simulation time: 3 hr 41 min 25 sec) 
Heartbeat CPU 1 instructions: 1260000000 cycles: 1831868347 heartbeat IPC: 0.767999 cumulative IPC: 0.637005 (Simulation time: 3 hr 42 min 5 sec) 
Heartbeat CPU 2 instructions: 2250000003 cycles: 1835074807 heartbeat IPC: 1.12975 cumulative IPC: 1.09795 (Simulation time: 3 hr 42 min 30 sec) 
Heartbeat CPU 2 instructions: 2260000000 cycles: 1843904980 heartbeat IPC: 1.13248 cumulative IPC: 1.09813 (Simulation time: 3 hr 43 min 32 sec) 
Heartbeat CPU 0 instructions: 750000001 cycles: 1844232700 heartbeat IPC: 0.244133 cumulative IPC: 0.244176 (Simulation time: 3 hr 43 min 34 sec) 
Heartbeat CPU 3 instructions: 720000000 cycles: 1844574268 heartbeat IPC: 0.298175 cumulative IPC: 0.272983 (Simulation time: 3 hr 43 min 36 sec) 
Heartbeat CPU 1 instructions: 1270000000 cycles: 1844912647 heartbeat IPC: 0.766618 cumulative IPC: 0.638013 (Simulation time: 3 hr 43 min 39 sec) 
Heartbeat CPU 2 instructions: 2270000001 cycles: 1852754609 heartbeat IPC: 1.12999 cumulative IPC: 1.0983 (Simulation time: 3 hr 44 min 36 sec) 
Heartbeat CPU 1 instructions: 1280000000 cycles: 1857933530 heartbeat IPC: 0.767997 cumulative IPC: 0.639015 (Simulation time: 3 hr 45 min 12 sec) 
Heartbeat CPU 2 instructions: 2280000000 cycles: 1861600467 heartbeat IPC: 1.13047 cumulative IPC: 1.09847 (Simulation time: 3 hr 45 min 37 sec) 
Heartbeat CPU 2 instructions: 2290000001 cycles: 1870433970 heartbeat IPC: 1.13205 cumulative IPC: 1.09864 (Simulation time: 3 hr 46 min 38 sec) 
Heartbeat CPU 1 instructions: 1290000000 cycles: 1871018101 heartbeat IPC: 0.764259 cumulative IPC: 0.639977 (Simulation time: 3 hr 46 min 42 sec) 
Heartbeat CPU 3 instructions: 730000000 cycles: 1877490356 heartbeat IPC: 0.303803 cumulative IPC: 0.273577 (Simulation time: 3 hr 47 min 27 sec) 
Heartbeat CPU 2 instructions: 2300000000 cycles: 1879281827 heartbeat IPC: 1.13022 cumulative IPC: 1.0988 (Simulation time: 3 hr 47 min 35 sec) 
Heartbeat CPU 0 instructions: 760000000 cycles: 1885854693 heartbeat IPC: 0.240258 cumulative IPC: 0.244081 (Simulation time: 3 hr 48 min 5 sec) 
Heartbeat CPU 2 instructions: 2310000001 cycles: 1888106214 heartbeat IPC: 1.13322 cumulative IPC: 1.09898 (Simulation time: 3 hr 48 min 15 sec) 
Heartbeat CPU 2 instructions: 2320000000 cycles: 1896958604 heartbeat IPC: 1.12964 cumulative IPC: 1.09914 (Simulation time: 3 hr 48 min 55 sec) 
Heartbeat CPU 2 instructions: 2330000003 cycles: 1905785961 heartbeat IPC: 1.13284 cumulative IPC: 1.09931 (Simulation time: 3 hr 49 min 34 sec) 
Heartbeat CPU 3 instructions: 740000000 cycles: 1911121209 heartbeat IPC: 0.297346 cumulative IPC: 0.274035 (Simulation time: 3 hr 49 min 58 sec) 
Heartbeat CPU 2 instructions: 2340000000 cycles: 1914593341 heartbeat IPC: 1.13541 cumulative IPC: 1.09949 (Simulation time: 3 hr 50 min 14 sec) 
Heartbeat CPU 2 instructions: 2350000003 cycles: 1923359184 heartbeat IPC: 1.14079 cumulative IPC: 1.0997 (Simulation time: 3 hr 50 min 55 sec) 
Heartbeat CPU 0 instructions: 770000002 cycles: 1928136476 heartbeat IPC: 0.236509 cumulative IPC: 0.2439 (Simulation time: 3 hr 51 min 16 sec) 
Heartbeat CPU 2 instructions: 2360000000 cycles: 1932104065 heartbeat IPC: 1.14353 cumulative IPC: 1.09991 (Simulation time: 3 hr 51 min 33 sec) 
Heartbeat CPU 2 instructions: 2370000001 cycles: 1940868145 heartbeat IPC: 1.14102 cumulative IPC: 1.10012 (Simulation time: 3 hr 52 min 12 sec) 
Heartbeat CPU 1 instructions: 1300000000 cycles: 1944809066 heartbeat IPC: 0.135518 cumulative IPC: 0.619029 (Simulation time: 3 hr 52 min 32 sec) 
Heartbeat CPU 3 instructions: 750000001 cycles: 1945097043 heartbeat IPC: 0.294327 cumulative IPC: 0.274423 (Simulation time: 3 hr 52 min 34 sec) 
Heartbeat CPU 2 instructions: 2380000000 cycles: 1949676855 heartbeat IPC: 1.13524 cumulative IPC: 1.10029 (Simulation time: 3 hr 53 min 6 sec) 
Heartbeat CPU 1 instructions: 1310000000 cycles: 1953206377 heartbeat IPC: 1.19086 cumulative IPC: 0.621718 (Simulation time: 3 hr 53 min 32 sec) 
Heartbeat CPU 2 instructions: 2390000000 cycles: 1958542338 heartbeat IPC: 1.12797 cumulative IPC: 1.10043 (Simulation time: 3 hr 54 min 14 sec) 
Heartbeat CPU 1 instructions: 1320000000 cycles: 1961080093 heartbeat IPC: 1.27005 cumulative IPC: 0.624565 (Simulation time: 3 hr 54 min 33 sec) 
Heartbeat CPU 2 instructions: 2400000000 cycles: 1967352716 heartbeat IPC: 1.13503 cumulative IPC: 1.1006 (Simulation time: 3 hr 55 min 22 sec) 
Heartbeat CPU 0 instructions: 780000000 cycles: 1967504502 heartbeat IPC: 0.254013 cumulative IPC: 0.244121 (Simulation time: 3 hr 55 min 23 sec) 
Heartbeat CPU 1 instructions: 1330000001 cycles: 1969013801 heartbeat IPC: 1.26044 cumulative IPC: 0.627366 (Simulation time: 3 hr 55 min 34 sec) 
Heartbeat CPU 2 instructions: 2410000000 cycles: 1976181511 heartbeat IPC: 1.13266 cumulative IPC: 1.10075 (Simulation time: 3 hr 56 min 29 sec) 
Heartbeat CPU 1 instructions: 1340000000 cycles: 1976931832 heartbeat IPC: 1.26294 cumulative IPC: 0.630147 (Simulation time: 3 hr 56 min 35 sec) 
Heartbeat CPU 3 instructions: 760000000 cycles: 1981325700 heartbeat IPC: 0.276025 cumulative IPC: 0.274455 (Simulation time: 3 hr 57 min 8 sec) 
Heartbeat CPU 1 instructions: 1350000000 cycles: 1984865030 heartbeat IPC: 1.26053 cumulative IPC: 0.6329 (Simulation time: 3 hr 57 min 34 sec) 
Heartbeat CPU 2 instructions: 2420000000 cycles: 1984998624 heartbeat IPC: 1.13416 cumulative IPC: 1.10092 (Simulation time: 3 hr 57 min 36 sec) 
Heartbeat CPU 1 instructions: 1360000000 cycles: 1992831134 heartbeat IPC: 1.25532 cumulative IPC: 0.635617 (Simulation time: 3 hr 58 min 36 sec) 
Heartbeat CPU 2 instructions: 2430000002 cycles: 1993831293 heartbeat IPC: 1.13216 cumulative IPC: 1.10107 (Simulation time: 3 hr 58 min 44 sec) 
Heartbeat CPU 1 instructions: 1370000003 cycles: 2000769568 heartbeat IPC: 1.25969 cumulative IPC: 0.638319 (Simulation time: 3 hr 59 min 37 sec) 
Heartbeat CPU 2 instructions: 2440000000 cycles: 2002383495 heartbeat IPC: 1.16929 cumulative IPC: 1.10138 (Simulation time: 3 hr 59 min 49 sec) 
Heartbeat CPU 1 instructions: 1380000000 cycles: 2008660327 heartbeat IPC: 1.2673 cumulative IPC: 0.641016 (Simulation time: 4 hr 0 min 38 sec) 
Heartbeat CPU 0 instructions: 790000000 cycles: 2008970535 heartbeat IPC: 0.241161 cumulative IPC: 0.244054 (Simulation time: 4 hr 0 min 40 sec) 
Heartbeat CPU 2 instructions: 2450000001 cycles: 2010909938 heartbeat IPC: 1.17282 cumulative IPC: 1.10171 (Simulation time: 4 hr 0 min 55 sec) 
Heartbeat CPU 1 instructions: 1390000001 cycles: 2016526563 heartbeat IPC: 1.27126 cumulative IPC: 0.643697 (Simulation time: 4 hr 1 min 39 sec) 
Heartbeat CPU 3 instructions: 770000003 cycles: 2018496872 heartbeat IPC: 0.269026 cumulative IPC: 0.274346 (Simulation time: 4 hr 1 min 54 sec) 
[...]
Heartbeat CPU 2 instructions: 4790000001 cycles: 4143016178 heartbeat IPC: 1.12635 cumulative IPC: 1.09946 (Simulation time: 7 hr 57 min 56 sec) 
Heartbeat CPU 3 instructions: 1340000000 cycles: 4147183399 heartbeat IPC: 0.271676 cumulative IPC: 0.270829 (Simulation time: 7 hr 58 min 24 sec) 
Heartbeat CPU 1 instructions: 2950000003 cycles: 4149533061 heartbeat IPC: 0.798428 cumulative IPC: 0.690659 (Simulation time: 7 hr 58 min 41 sec) 
Heartbeat CPU 2 instructions: 4800000000 cycles: 4152045808 heartbeat IPC: 1.10747 cumulative IPC: 1.09948 (Simulation time: 7 hr 58 min 58 sec) 
Heartbeat CPU 2 instructions: 4810000000 cycles: 4161310223 heartbeat IPC: 1.0794 cumulative IPC: 1.09943 (Simulation time: 8 hr 0 min 2 sec) 
Heartbeat CPU 1 instructions: 2960000000 cycles: 4162018276 heartbeat IPC: 0.800947 cumulative IPC: 0.691004 (Simulation time: 8 hr 0 min 7 sec) 
Heartbeat CPU 2 instructions: 4820000000 cycles: 4170631226 heartbeat IPC: 1.07285 cumulative IPC: 1.09937 (Simulation time: 8 hr 1 min 7 sec) 
Heartbeat CPU 0 instructions: 1310000001 cycles: 4172227843 heartbeat IPC: 0.230113 cumulative IPC: 0.242068 (Simulation time: 8 hr 1 min 18 sec) 
Heartbeat CPU 1 instructions: 2970000000 cycles: 4174528035 heartbeat IPC: 0.799376 cumulative IPC: 0.691343 (Simulation time: 8 hr 1 min 34 sec) 
Heartbeat CPU 2 instructions: 4830000003 cycles: 4179664622 heartbeat IPC: 1.107 cumulative IPC: 1.09938 (Simulation time: 8 hr 2 min 9 sec) 
Heartbeat CPU 3 instructions: 1350000000 cycles: 4184635510 heartbeat IPC: 0.267008 cumulative IPC: 0.270793 (Simulation time: 8 hr 2 min 45 sec) 
Heartbeat CPU 1 instructions: 2980000000 cycles: 4187044073 heartbeat IPC: 0.798975 cumulative IPC: 0.691678 (Simulation time: 8 hr 3 min 2 sec) 
Heartbeat CPU 2 instructions: 4840000000 cycles: 4188721125 heartbeat IPC: 1.10418 cumulative IPC: 1.0994 (Simulation time: 8 hr 3 min 13 sec) 
Heartbeat CPU 2 instructions: 4850000000 cycles: 4197765586 heartbeat IPC: 1.10565 cumulative IPC: 1.09941 (Simulation time: 8 hr 4 min 17 sec) 
Heartbeat CPU 1 instructions: 2990000000 cycles: 4199561415 heartbeat IPC: 0.798892 cumulative IPC: 0.692011 (Simulation time: 8 hr 4 min 29 sec) 
Heartbeat CPU 2 instructions: 4860000000 cycles: 4206805361 heartbeat IPC: 1.10622 cumulative IPC: 1.09942 (Simulation time: 8 hr 5 min 19 sec) 
Heartbeat CPU 1 instructions: 3000000000 cycles: 4212083884 heartbeat IPC: 0.798565 cumulative IPC: 0.692341 (Simulation time: 8 hr 5 min 56 sec) 
Heartbeat CPU 0 instructions: 1320000000 cycles: 4215149412 heartbeat IPC: 0.232983 cumulative IPC: 0.241972 (Simulation time: 8 hr 6 min 17 sec) 
Heartbeat CPU 2 instructions: 4870000002 cycles: 4215844587 heartbeat IPC: 1.10629 cumulative IPC: 1.09944 (Simulation time: 8 hr 6 min 21 sec) 
Heartbeat CPU 3 instructions: 1360000000 cycles: 4222388328 heartbeat IPC: 0.264881 cumulative IPC: 0.270738 (Simulation time: 8 hr 7 min 6 sec) 
Heartbeat CPU 1 instructions: 3010000002 cycles: 4224695684 heartbeat IPC: 0.792908 cumulative IPC: 0.692653 (Simulation time: 8 hr 7 min 22 sec) 
Heartbeat CPU 2 instructions: 4880000000 cycles: 4224878090 heartbeat IPC: 1.10699 cumulative IPC: 1.09946 (Simulation time: 8 hr 7 min 23 sec) 
Heartbeat CPU 2 instructions: 4890000000 cycles: 4233931803 heartbeat IPC: 1.10452 cumulative IPC: 1.09947 (Simulation time: 8 hr 8 min 25 sec) 
Heartbeat CPU 1 instructions: 3020000000 cycles: 4237224589 heartbeat IPC: 0.798154 cumulative IPC: 0.692978 (Simulation time: 8 hr 8 min 48 sec) 
Heartbeat CPU 2 instructions: 4900000000 cycles: 4242974585 heartbeat IPC: 1.10585 cumulative IPC: 1.09948 (Simulation time: 8 hr 9 min 29 sec) 
Heartbeat CPU 1 instructions: 3030000001 cycles: 4250923118 heartbeat IPC: 0.730005 cumulative IPC: 0.693102 (Simulation time: 8 hr 10 min 21 sec) 
Heartbeat CPU 2 instructions: 4910000001 cycles: 4252011621 heartbeat IPC: 1.10656 cumulative IPC: 1.0995 (Simulation time: 8 hr 10 min 28 sec) 
Heartbeat CPU 0 instructions: 1330000001 cycles: 4255023818 heartbeat IPC: 0.250787 cumulative IPC: 0.242058 (Simulation time: 8 hr 10 min 47 sec) 
Heartbeat CPU 3 instructions: 1370000000 cycles: 4260208918 heartbeat IPC: 0.264406 cumulative IPC: 0.27068 (Simulation time: 8 hr 11 min 22 sec) 
Heartbeat CPU 2 instructions: 4920000000 cycles: 4261049072 heartbeat IPC: 1.10651 cumulative IPC: 1.09951 (Simulation time: 8 hr 11 min 28 sec) 
Heartbeat CPU 1 instructions: 3040000000 cycles: 4264174359 heartbeat IPC: 0.754646 cumulative IPC: 0.693301 (Simulation time: 8 hr 11 min 50 sec) 
Heartbeat CPU 2 instructions: 4930000003 cycles: 4270527743 heartbeat IPC: 1.055 cumulative IPC: 1.09941 (Simulation time: 8 hr 12 min 33 sec) 
Heartbeat CPU 1 instructions: 3050000002 cycles: 4277248495 heartbeat IPC: 0.764869 cumulative IPC: 0.693529 (Simulation time: 8 hr 13 min 18 sec) 
Heartbeat CPU 2 instructions: 4940000000 cycles: 4279556078 heartbeat IPC: 1.10762 cumulative IPC: 1.09943 (Simulation time: 8 hr 13 min 34 sec) 
Heartbeat CPU 2 instructions: 4950000002 cycles: 4288658138 heartbeat IPC: 1.09865 cumulative IPC: 1.09943 (Simulation time: 8 hr 14 min 35 sec) 
Heartbeat CPU 1 instructions: 3060000000 cycles: 4290326758 heartbeat IPC: 0.764627 cumulative IPC: 0.693755 (Simulation time: 8 hr 14 min 47 sec) 
Heartbeat CPU 2 instructions: 4960000000 cycles: 4297713962 heartbeat IPC: 1.10426 cumulative IPC: 1.09944 (Simulation time: 8 hr 15 min 36 sec) 
Heartbeat CPU 3 instructions: 1380000000 cycles: 4297836868 heartbeat IPC: 0.26576 cumulative IPC: 0.270635 (Simulation time: 8 hr 15 min 37 sec) 
Heartbeat CPU 0 instructions: 1340000000 cycles: 4298865738 heartbeat IPC: 0.228092 cumulative IPC: 0.24191 (Simulation time: 8 hr 15 min 44 sec) 
Finished CPU 0 instructions: 1000000001 cycles: 4133992834 cumulative IPC: 0.241897 (Simulation time: 8 hr 16 min 4 sec) 

CPU 0 Branch Prediction Accuracy: 99.2859% MPKI: 1.47793

CPU 1 Branch Prediction Accuracy: 99.6858% MPKI: 0.0325909

CPU 2 Branch Prediction Accuracy: 92.4154% MPKI: 10.2488

CPU 3 Branch Prediction Accuracy: 92.7139% MPKI: 15.0766

ChampSim completed all CPUs

Total Simulation Statistics (not including warmup)

CPU 0 cumulative IPC: 0.241897 instructions: 1000000001 cycles: 4133992834
L1D TOTAL     ACCESS:  232652054  HIT:  204443019  MISS:   28209035
L1D LOAD      ACCESS:  186769535  HIT:  159139850  MISS:   27629685
L1D RFO       ACCESS:   45882519  HIT:   45303169  MISS:     579350
L1D PREFETCH  ACCESS:          0  HIT:          0  MISS:          0
L1D WRITEBACK ACCESS:          0  HIT:          0  MISS:          0
L1I TOTAL     ACCESS:  321032308  HIT:  317636769  MISS:    3395539
L1I LOAD      ACCESS:  321032308  HIT:  317636769  MISS:    3395539
L1I RFO       ACCESS:          0  HIT:          0  MISS:          0
L1I PREFETCH  ACCESS:          0  HIT:          0  MISS:          0
L1I WRITEBACK ACCESS:          0  HIT:          0  MISS:          0
L2C TOTAL     ACCESS:   35993624  HIT:    8928599  MISS:   27065025
L2C LOAD      ACCESS:   31024582  HIT:    4929263  MISS:   26095319
L2C RFO       ACCESS:     579282  HIT:     292409  MISS:     286873
L2C PREFETCH  ACCESS:    3187743  HIT:    2514204  MISS:     673539
L2C WRITEBACK ACCESS:    1202017  HIT:    1192723  MISS:       9294

PERC PASS: 341111619
LLC TOTAL     ACCESS:   42375108  HIT:   11604721  MISS:   30770387
LLC LOAD      ACCESS:   25968620  HIT:    6161354  MISS:   19807266
LLC RFO       ACCESS:     286812  HIT:      66531  MISS:     220281
LLC PREFETCH  ACCESS:   15615679  HIT:    4875939  MISS:   10739740
LLC WRITEBACK ACCESS:     503997  HIT:     500897  MISS:       3100

CPU 1 cumulative IPC: 0.69394 instructions: 2868741506 cycles: 4133992834
L1D TOTAL     ACCESS: 1420131590  HIT: 1362589530  MISS:   57542060
L1D LOAD      ACCESS: 1246297601  HIT: 1188756198  MISS:   57541403
L1D RFO       ACCESS:  173833989  HIT:  173833332  MISS:        657
L1D PREFETCH  ACCESS:          0  HIT:          0  MISS:          0
L1D WRITEBACK ACCESS:          0  HIT:          0  MISS:          0
L1I TOTAL     ACCESS:  785037903  HIT:  785037175  MISS:        728
L1I LOAD      ACCESS:  785037903  HIT:  785037175  MISS:        728
L1I RFO       ACCESS:          0  HIT:          0  MISS:          0
L1I PREFETCH  ACCESS:          0  HIT:          0  MISS:          0
L1I WRITEBACK ACCESS:          0  HIT:          0  MISS:          0
L2C TOTAL     ACCESS:  114628543  HIT:   63218667  MISS:   51409876
L2C LOAD      ACCESS:   57542121  HIT:   22323581  MISS:   35218540
L2C RFO       ACCESS:        648  HIT:        593  MISS:         55
L2C PREFETCH  ACCESS:   33943024  HIT:   17753870  MISS:   16189154
L2C WRITEBACK ACCESS:   23142750  HIT:   23140623  MISS:       2127

PERC PASS: 341111619
LLC TOTAL     ACCESS:  214303599  HIT:  162669238  MISS:   51634361
LLC LOAD      ACCESS:   35140976  HIT:   27730983  MISS:    7409993
LLC RFO       ACCESS:         55  HIT:         27  MISS:         28
LLC PREFETCH  ACCESS:  156042617  HIT:  111818682  MISS:   44223935
LLC WRITEBACK ACCESS:   23119951  HIT:   23119546  MISS:        405

CPU 2 cumulative IPC: 1.09947 instructions: 4545191926 cycles: 4133992835
L1D TOTAL     ACCESS:  812946007  HIT:  811349694  MISS:    1596313
L1D LOAD      ACCESS:  629092710  HIT:  628919395  MISS:     173315
L1D RFO       ACCESS:  183853297  HIT:  182430299  MISS:    1422998
L1D PREFETCH  ACCESS:          0  HIT:          0  MISS:          0
L1D WRITEBACK ACCESS:          0  HIT:          0  MISS:          0
L1I TOTAL     ACCESS: 1124814665  HIT: 1124814665  MISS:          0
L1I LOAD      ACCESS: 1124814665  HIT: 1124814665  MISS:          0
L1I RFO       ACCESS:          0  HIT:          0  MISS:          0
L1I PREFETCH  ACCESS:          0  HIT:          0  MISS:          0
L1I WRITEBACK ACCESS:          0  HIT:          0  MISS:          0
L2C TOTAL     ACCESS:    3076181  HIT:    1563006  MISS:    1513175
L2C LOAD      ACCESS:     173315  HIT:      80407  MISS:      92908
L2C RFO       ACCESS:    1422998  HIT:      47986  MISS:    1375012
L2C PREFETCH  ACCESS:      56459  HIT:      11253  MISS:      45206
L2C WRITEBACK ACCESS:    1423409  HIT:    1423360  MISS:         49

PERC PASS: 341111619
LLC TOTAL     ACCESS:    3331253  HIT:    1347142  MISS:    1984111
LLC LOAD      ACCESS:      92907  HIT:      85263  MISS:       7644
LLC RFO       ACCESS:    1375012  HIT:         17  MISS:    1374995
LLC PREFETCH  ACCESS:     488247  HIT:     350907  MISS:     137340
LLC WRITEBACK ACCESS:    1375087  HIT:     910955  MISS:     464132

CPU 3 cumulative IPC: 0.270624 instructions: 1118759211 cycles: 4133992835
L1D TOTAL     ACCESS:  384485287  HIT:  304481826  MISS:   80003461
L1D LOAD      ACCESS:  291237132  HIT:  214772327  MISS:   76464805
L1D RFO       ACCESS:   93248155  HIT:   89709499  MISS:    3538656
L1D PREFETCH  ACCESS:          0  HIT:          0  MISS:          0
L1D WRITEBACK ACCESS:          0  HIT:          0  MISS:          0
L1I TOTAL     ACCESS:  261812953  HIT:  261812953  MISS:          0
L1I LOAD      ACCESS:  261812953  HIT:  261812953  MISS:          0
L1I RFO       ACCESS:          0  HIT:          0  MISS:          0
L1I PREFETCH  ACCESS:          0  HIT:          0  MISS:          0
L1I WRITEBACK ACCESS:          0  HIT:          0  MISS:          0
L2C TOTAL     ACCESS:   91713499  HIT:   21681052  MISS:   70032447
L2C LOAD      ACCESS:   76464472  HIT:   12887039  MISS:   63577433
L2C RFO       ACCESS:    3538639  HIT:     633225  MISS:    2905414
L2C PREFETCH  ACCESS:    5951484  HIT:    2408947  MISS:    3542537
L2C WRITEBACK ACCESS:    5758904  HIT:    5751841  MISS:       7063

PERC PASS: 341111619
LLC TOTAL     ACCESS:  113073152  HIT:   79341406  MISS:   33731746
LLC LOAD      ACCESS:   62515077  HIT:   49571025  MISS:   12944052
LLC RFO       ACCESS:    2905388  HIT:    2883562  MISS:      21826
LLC PREFETCH  ACCESS:   42817396  HIT:   22052550  MISS:   20764846
LLC WRITEBACK ACCESS:    4835291  HIT:    4834269  MISS:       1022

Region of Interest Statistics

CPU 0 cumulative IPC: 0.241897 instructions: 1000000001 cycles: 4133992834
L1D TOTAL     ACCESS:  232652054  HIT:  204443019  MISS:   28209035
L1D LOAD      ACCESS:  186769535  HIT:  159139850  MISS:   27629685
L1D RFO       ACCESS:   45882519  HIT:   45303169  MISS:     579350
L1D PREFETCH  ACCESS:          0  HIT:          0  MISS:          0
L1D WRITEBACK ACCESS:          0  HIT:          0  MISS:          0
L1D PREFETCH  REQUESTED:          0  ISSUED:          0  USEFUL:          0  USELESS:          0
L1I TOTAL     ACCESS:  321032308  HIT:  317636769  MISS:    3395539
L1I LOAD      ACCESS:  321032308  HIT:  317636769  MISS:    3395539
L1I RFO       ACCESS:          0  HIT:          0  MISS:          0
L1I PREFETCH  ACCESS:          0  HIT:          0  MISS:          0
L1I WRITEBACK ACCESS:          0  HIT:          0  MISS:          0
L1I PREFETCH  REQUESTED:          0  ISSUED:          0  USEFUL:          0  USELESS:          0
L2C TOTAL     ACCESS:   35993624  HIT:    8928599  MISS:   27065025
L2C LOAD      ACCESS:   31024582  HIT:    4929263  MISS:   26095319
L2C RFO       ACCESS:     579282  HIT:     292409  MISS:     286873
L2C PREFETCH  ACCESS:    3187743  HIT:    2514204  MISS:     673539
L2C WRITEBACK ACCESS:    1202017  HIT:    1192723  MISS:       9294
L2C PREFETCH  REQUESTED:   30908230  ISSUED:   30906270  USEFUL:     496901  USELESS:     404761
LLC TOTAL     ACCESS:   42375108  HIT:   11604721  MISS:   30770387
LLC LOAD      ACCESS:   25968620  HIT:    6161354  MISS:   19807266
LLC RFO       ACCESS:     286812  HIT:      66531  MISS:     220281
LLC PREFETCH  ACCESS:   15615679  HIT:    4875939  MISS:   10739740
LLC WRITEBACK ACCESS:     503997  HIT:     500897  MISS:       3100
LLC PREFETCH  REQUESTED:          0  ISSUED:          0  USEFUL:   45869907  USELESS:   42097024
Major fault: 0 Minor fault: 13556

CPU 1 cumulative IPC: 0.630561 instructions: 1000000000 cycles: 1585888630
L1D TOTAL     ACCESS:  563107651  HIT:  542380116  MISS:   20727535
L1D LOAD      ACCESS:  498763271  HIT:  478036062  MISS:   20727209
L1D RFO       ACCESS:   64344380  HIT:   64344054  MISS:        326
L1D PREFETCH  ACCESS:          0  HIT:          0  MISS:          0
L1D WRITEBACK ACCESS:          0  HIT:          0  MISS:          0
L1D PREFETCH  REQUESTED:          0  ISSUED:          0  USEFUL:          0  USELESS:          0
L1I TOTAL     ACCESS:  291840254  HIT:  291839920  MISS:        334
L1I LOAD      ACCESS:  291840254  HIT:  291839920  MISS:        334
L1I RFO       ACCESS:          0  HIT:          0  MISS:          0
L1I PREFETCH  ACCESS:          0  HIT:          0  MISS:          0
L1I WRITEBACK ACCESS:          0  HIT:          0  MISS:          0
L1I PREFETCH  REQUESTED:          0  ISSUED:          0  USEFUL:          0  USELESS:          0
L2C TOTAL     ACCESS:   43348891  HIT:   25691691  MISS:   17657200
L2C LOAD      ACCESS:   20727538  HIT:    8028944  MISS:   12698594
L2C RFO       ACCESS:        321  HIT:        299  MISS:         22
L2C PREFETCH  ACCESS:   13823577  HIT:    8865010  MISS:    4958567
L2C WRITEBACK ACCESS:    8797455  HIT:    8797438  MISS:         17
L2C PREFETCH  REQUESTED:  183106711  ISSUED:  182733989  USEFUL:   16056054  USELESS:     538466
LLC TOTAL     ACCESS:   71534040  HIT:   54060160  MISS:   17473880
LLC LOAD      ACCESS:   12668269  HIT:    9948837  MISS:    2719432
LLC RFO       ACCESS:         22  HIT:         11  MISS:         11
LLC PREFETCH  ACCESS:   50072215  HIT:   35317793  MISS:   14754422
LLC WRITEBACK ACCESS:    8793534  HIT:    8793519  MISS:         15
LLC PREFETCH  REQUESTED:          0  ISSUED:          0  USEFUL:   45869907  USELESS:   42097024
Major fault: 0 Minor fault: 941584

CPU 2 cumulative IPC: 1.09777 instructions: 1000000002 cycles: 910940038
L1D TOTAL     ACCESS:  179694882  HIT:  179316179  MISS:     378703
L1D LOAD      ACCESS:  138600148  HIT:  138559321  MISS:      40827
L1D RFO       ACCESS:   41094734  HIT:   40756858  MISS:     337876
L1D PREFETCH  ACCESS:          0  HIT:          0  MISS:          0
L1D WRITEBACK ACCESS:          0  HIT:          0  MISS:          0
L1D PREFETCH  REQUESTED:          0  ISSUED:          0  USEFUL:          0  USELESS:          0
L1I TOTAL     ACCESS:  247630006  HIT:  247630006  MISS:          0
L1I LOAD      ACCESS:  247630006  HIT:  247630006  MISS:          0
L1I RFO       ACCESS:          0  HIT:          0  MISS:          0
L1I PREFETCH  ACCESS:          0  HIT:          0  MISS:          0
L1I WRITEBACK ACCESS:          0  HIT:          0  MISS:          0
L1I PREFETCH  REQUESTED:          0  ISSUED:          0  USEFUL:          0  USELESS:          0
L2C TOTAL     ACCESS:     727681  HIT:     367061  MISS:     360620
L2C LOAD      ACCESS:      40827  HIT:      16505  MISS:      24322
L2C RFO       ACCESS:     337876  HIT:      10189  MISS:     327687
L2C PREFETCH  ACCESS:      11023  HIT:       2416  MISS:       8607
L2C WRITEBACK ACCESS:     337955  HIT:     337951  MISS:          4
L2C PREFETCH  REQUESTED:     531130  ISSUED:     531130  USEFUL:      47698  USELESS:        178
LLC TOTAL     ACCESS:     785522  HIT:     323112  MISS:     462410
LLC LOAD      ACCESS:      24322  HIT:      22266  MISS:       2056
LLC RFO       ACCESS:     327687  HIT:          3  MISS:     327684
LLC PREFETCH  ACCESS:     105794  HIT:      73569  MISS:      32225
LLC WRITEBACK ACCESS:     327719  HIT:     227274  MISS:     100445
LLC PREFETCH  REQUESTED:          0  ISSUED:          0  USEFUL:   45869907  USELESS:   42097024
Major fault: 0 Minor fault: 10313

CPU 3 cumulative IPC: 0.270712 instructions: 1000000001 cycles: 3693956807
L1D TOTAL     ACCESS:  343722946  HIT:  272313120  MISS:   71409826
L1D LOAD      ACCESS:  260298641  HIT:  192059922  MISS:   68238719
L1D RFO       ACCESS:   83424305  HIT:   80253198  MISS:    3171107
L1D PREFETCH  ACCESS:          0  HIT:          0  MISS:          0
L1D WRITEBACK ACCESS:          0  HIT:          0  MISS:          0
L1D PREFETCH  REQUESTED:          0  ISSUED:          0  USEFUL:          0  USELESS:          0
L1I TOTAL     ACCESS:  234308971  HIT:  234308971  MISS:          0
L1I LOAD      ACCESS:  234308971  HIT:  234308971  MISS:          0
L1I RFO       ACCESS:          0  HIT:          0  MISS:          0
L1I PREFETCH  ACCESS:          0  HIT:          0  MISS:          0
L1I WRITEBACK ACCESS:          0  HIT:          0  MISS:          0
L1I PREFETCH  REQUESTED:          0  ISSUED:          0  USEFUL:          0  USELESS:          0
L2C TOTAL     ACCESS:   81754134  HIT:   19248152  MISS:   62505982
L2C LOAD      ACCESS:   68238419  HIT:   11463392  MISS:   56775027
L2C RFO       ACCESS:    3171090  HIT:     565031  MISS:    2606059
L2C PREFETCH  ACCESS:    5216550  HIT:    2097871  MISS:    3118679
L2C WRITEBACK ACCESS:    5128075  HIT:    5121858  MISS:       6217
L2C PREFETCH  REQUESTED:  126565548  ISSUED:  126565548  USEFUL:    4479334  USELESS:     679721
LLC TOTAL     ACCESS:  100409436  HIT:   70259244  MISS:   30150192
LLC LOAD      ACCESS:   55829190  HIT:   44134576  MISS:   11694614
LLC RFO       ACCESS:    2606038  HIT:    2586634  MISS:      19404
LLC PREFETCH  ACCESS:   37672784  HIT:   19237543  MISS:   18435241
LLC WRITEBACK ACCESS:    4301424  HIT:    4300491  MISS:        933
LLC PREFETCH  REQUESTED:          0  ISSUED:          0  USEFUL:   45869907  USELESS:   42097024
Major fault: 0 Minor fault: 443599

PERC PASS: 341111619

PERC PASS: 341111619

PERC PASS: 341111619

PERC PASS: 341111619

DRAM Statistics
 CHANNEL 0
 RQ ROW_BUFFER_HIT:   26913563  ROW_BUFFER_MISS:   31796409
 DBUS_CONGESTED:   70535243
 WQ ROW_BUFFER_HIT:    1059172  ROW_BUFFER_MISS:   11498789  FULL:          0

 CHANNEL 1
 RQ ROW_BUFFER_HIT:   27025115  ROW_BUFFER_MISS:   31916377
 DBUS_CONGESTED:   70535243
 WQ ROW_BUFFER_HIT:    1058905  ROW_BUFFER_MISS:   11488256  FULL:          0

 AVG_CONGESTED_CYCLE: 13
