Initialize SIGNATURE TABLE
ST_SET: 1
ST_WAY: 256
ST_TAG_BIT: 16
ST_TAG_MASK: ffff

Initialize PATTERN TABLE
PT_SET: 512
PT_WAY: 4
SIG_DELTA_BIT: 7
C_SIG_BIT: 4
C_DELTA_BIT: 4

Initialize PREFETCH FILTER
FILTER_SET: 1024

*** ChampSim Multicore Out-of-Order Simulator ***

Warmup Instructions: 20000000
Simulation Instructions: 10000000
Number of CPUs: 1
LLC sets: 2048
LLC ways: 16
Off-chip DRAM Size: 4096 MB Channels: 1 Width: 64-bit Data Rate: 1600 MT/s

CPU 0 runs /home/ubuntu/PPF_Paper_Source_Code-master/traces/623.xalancbmk_s-10B.champsimtrace.xz
Heartbeat CPU 0 instructions: 10000001 cycles: 4881182 heartbeat IPC: 2.04868 cumulative IPC: 2.04868 (Simulation time: 0 hr 0 min 30 sec) 
Heartbeat CPU 0 instructions: 20000000 cycles: 9695400 heartbeat IPC: 2.07718 cumulative IPC: 2.06283 (Simulation time: 0 hr 0 min 59 sec) 

Warmup complete CPU 0 instructions: 20000001 cycles: 9695401 (Simulation time: 0 hr 0 min 59 sec) 

Heartbeat CPU 0 instructions: 30000000 cycles: 44489078 heartbeat IPC: 0.287409 cumulative IPC: 0.287409 (Simulation time: 0 hr 1 min 55 sec) 
Finished CPU 0 instructions: 10000001 cycles: 34793679 cumulative IPC: 0.287409 (Simulation time: 0 hr 1 min 55 sec) 

CPU 0 Branch Prediction Accuracy: 99.2458% MPKI: 1.7832

ChampSim completed all CPUs

Region of Interest Statistics

CPU 0 cumulative IPC: 0.287409 instructions: 10000001 cycles: 34793679
L1D TOTAL     ACCESS:    2308093  HIT:    2020277  MISS:     287816
L1D LOAD      ACCESS:    1856374  HIT:    1574448  MISS:     281926
L1D RFO       ACCESS:     451719  HIT:     445829  MISS:       5890
L1D PREFETCH  ACCESS:          0  HIT:          0  MISS:          0
L1D WRITEBACK ACCESS:          0  HIT:          0  MISS:          0
L1D PREFETCH  REQUESTED:          0  ISSUED:          0  USEFUL:          0  USELESS:          0
L1I TOTAL     ACCESS:    3215789  HIT:    3178995  MISS:      36794
L1I LOAD      ACCESS:    3215789  HIT:    3178995  MISS:      36794
L1I RFO       ACCESS:          0  HIT:          0  MISS:          0
L1I PREFETCH  ACCESS:          0  HIT:          0  MISS:          0
L1I WRITEBACK ACCESS:          0  HIT:          0  MISS:          0
L1I PREFETCH  REQUESTED:          0  ISSUED:          0  USEFUL:          0  USELESS:          0
L2C TOTAL     ACCESS:     375291  HIT:     105531  MISS:     269760
L2C LOAD      ACCESS:     318713  HIT:      55125  MISS:     263588
L2C RFO       ACCESS:       5890  HIT:       2919  MISS:       2971
L2C PREFETCH  ACCESS:      38278  HIT:      35172  MISS:       3106
L2C WRITEBACK ACCESS:      12410  HIT:      12315  MISS:         95
L2C PREFETCH  REQUESTED:     906245  ISSUED:     906243  USEFUL:      13616  USELESS:       2889
LLC TOTAL     ACCESS:     446251  HIT:     104628  MISS:     341623
LLC LOAD      ACCESS:     259143  HIT:      58389  MISS:     200754
LLC RFO       ACCESS:       2971  HIT:        722  MISS:       2249
LLC PREFETCH  ACCESS:     178831  HIT:      40227  MISS:     138604
LLC WRITEBACK ACCESS:       5306  HIT:       5290  MISS:         16
LLC PREFETCH  REQUESTED:          0  ISSUED:          0  USEFUL:     151499  USELESS:     299000
Major fault: 0 Minor fault: 10744

PERC PASS: 906245

DRAM Statistics
 CHANNEL 0
 RQ ROW_BUFFER_HIT:     273496  ROW_BUFFER_MISS:      68026
 DBUS_CONGESTED:     114348
 WQ ROW_BUFFER_HIT:        395  ROW_BUFFER_MISS:       3040  FULL:          0

 AVG_CONGESTED_CYCLE: 11
